# generated using pymatgen
data_B5H8
_symmetry_space_group_name_H-M   'P 1'
_cell_length_a   6.06112700
_cell_length_b   11.41239200
_cell_length_c   15.18370500
_cell_angle_alpha   90.00000000
_cell_angle_beta   90.00000000
_cell_angle_gamma   90.00000000
_symmetry_Int_Tables_number   1
_chemical_formula_structural   B5H8
_chemical_formula_sum   'B40 H64'
_cell_volume   1050.28659370
_cell_formula_units_Z   8
loop_
 _symmetry_equiv_pos_site_id
 _symmetry_equiv_pos_as_xyz
  1  'x, y, z'
loop_
 _atom_site_type_symbol
 _atom_site_label
 _atom_site_symmetry_multiplicity
 _atom_site_fract_x
 _atom_site_fract_y
 _atom_site_fract_z
 _atom_site_occupancy
  B  B0  1  0.06224100  0.15183000  0.11042500  1
  B  B1  1  0.93775900  0.84817000  0.61042500  1
  B  B2  1  0.43775900  0.65183000  0.11042500  1
  B  B3  1  0.56224100  0.34817000  0.61042500  1
  B  B4  1  0.17606900  0.04208600  0.03958200  1
  B  B5  1  0.82393100  0.95791400  0.53958200  1
  B  B6  1  0.32393100  0.54208600  0.03958200  1
  B  B7  1  0.67606900  0.45791400  0.53958200  1
  B  B8  1  0.40377900  0.02587500  0.11323600  1
  B  B9  1  0.59622100  0.97412500  0.61323600  1
  B  B10  1  0.09622100  0.52587500  0.11323600  1
  B  B11  1  0.90377900  0.47412500  0.61323600  1
  B  B12  1  0.29342600  0.13801400  0.18491000  1
  B  B13  1  0.70657400  0.86198600  0.68491000  1
  B  B14  1  0.20657400  0.63801400  0.18491000  1
  B  B15  1  0.79342600  0.36198600  0.68491000  1
  B  B16  1  0.32621900  0.15863500  0.07436100  1
  B  B17  1  0.67378100  0.84136500  0.57436100  1
  B  B18  1  0.17378100  0.65863500  0.07436100  1
  B  B19  1  0.82621900  0.34136500  0.57436100  1
  B  B20  1  0.54042300  0.33467100  0.28299400  1
  B  B21  1  0.45957700  0.66532900  0.78299400  1
  B  B22  1  0.95957700  0.83467100  0.28299400  1
  B  B23  1  0.04042300  0.16532900  0.78299400  1
  B  B24  1  0.27670100  0.32222600  0.33462300  1
  B  B25  1  0.72329900  0.67777400  0.83462300  1
  B  B26  1  0.22329900  0.82222600  0.33462300  1
  B  B27  1  0.77670100  0.17777400  0.83462300  1
  B  B28  1  0.36090800  0.18833300  0.38511100  1
  B  B29  1  0.63909200  0.81166700  0.88511100  1
  B  B30  1  0.13909200  0.68833300  0.38511100  1
  B  B31  1  0.86090800  0.31166700  0.88511100  1
  B  B32  1  0.62339700  0.20045700  0.33298100  1
  B  B33  1  0.37660300  0.79954300  0.83298100  1
  B  B34  1  0.87660300  0.70045700  0.33298100  1
  B  B35  1  0.12339700  0.29954300  0.83298100  1
  B  B36  1  0.38502200  0.21057900  0.27431600  1
  B  B37  1  0.61497800  0.78942100  0.77431600  1
  B  B38  1  0.11497800  0.71057900  0.27431600  1
  B  B39  1  0.88502200  0.28942100  0.77431600  1
  H  H40  1  0.98565500  0.04518500  0.08503700  1
  H  H41  1  0.01434500  0.95481500  0.58503700  1
  H  H42  1  0.51434500  0.54518500  0.08503700  1
  H  H43  1  0.48565500  0.45481500  0.58503700  1
  H  H44  1  0.07202300  0.11616600  0.19409100  1
  H  H45  1  0.92797700  0.88383400  0.69409100  1
  H  H46  1  0.42797700  0.61616600  0.19409100  1
  H  H47  1  0.57202300  0.38383400  0.69409100  1
  H  H48  1  0.13498000  0.00729000  0.96738300  1
  H  H49  1  0.86502000  0.99271000  0.46738300  1
  H  H50  1  0.36502000  0.50729000  0.96738300  1
  H  H51  1  0.63498000  0.49271000  0.46738300  1
  H  H52  1  0.91210000  0.21874700  0.10389800  1
  H  H53  1  0.08790000  0.78125300  0.60389800  1
  H  H54  1  0.58790000  0.71874700  0.10389800  1
  H  H55  1  0.41210000  0.28125300  0.60389800  1
  H  H56  1  0.57473100  0.97452900  0.10952500  1
  H  H57  1  0.42526900  0.02547100  0.60952500  1
  H  H58  1  0.92526900  0.47452900  0.10952500  1
  H  H59  1  0.07473100  0.52547100  0.60952500  1
  H  H60  1  0.42421200  0.23162300  0.03412000  1
  H  H61  1  0.57578800  0.76837700  0.53412000  1
  H  H62  1  0.07578800  0.73162300  0.03412000  1
  H  H63  1  0.92421200  0.26837700  0.53412000  1
  H  H64  1  0.61716800  0.39703500  0.22803200  1
  H  H65  1  0.33165000  0.02056200  0.19619400  1
  H  H66  1  0.38283200  0.60296500  0.72803200  1
  H  H67  1  0.11716800  0.10296500  0.72803200  1
  H  H68  1  0.10706200  0.37433200  0.32864700  1
  H  H69  1  0.89293800  0.62566800  0.82864700  1
  H  H70  1  0.39293800  0.87433200  0.32864700  1
  H  H71  1  0.60706200  0.12566800  0.82864700  1
  H  H72  1  0.26986200  0.11391900  0.42635200  1
  H  H73  1  0.73013800  0.88608100  0.92635200  1
  H  H74  1  0.23013800  0.61391900  0.42635200  1
  H  H75  1  0.76986200  0.38608100  0.92635200  1
  H  H76  1  0.77914800  0.13753600  0.32585300  1
  H  H77  1  0.22085200  0.86246400  0.82585300  1
  H  H78  1  0.72085200  0.63753600  0.32585300  1
  H  H79  1  0.27914800  0.36246400  0.82585300  1
  H  H80  1  0.06530200  0.29933400  0.91902300  1
  H  H81  1  0.93469800  0.70066600  0.41902300  1
  H  H82  1  0.43469800  0.79933400  0.91902300  1
  H  H83  1  0.56530200  0.20066600  0.41902300  1
  H  H84  1  0.93863900  0.09682300  0.84295700  1
  H  H85  1  0.06136100  0.90317700  0.34295700  1
  H  H86  1  0.56136100  0.59682300  0.84295700  1
  H  H87  1  0.43863900  0.40317700  0.34295700  1
  H  H88  1  0.74442600  0.55035000  0.58730500  1
  H  H89  1  0.25557400  0.44965000  0.08730500  1
  H  H90  1  0.75557400  0.05035000  0.58730500  1
  H  H91  1  0.24442600  0.94965000  0.08730500  1
  H  H92  1  0.80148200  0.20759800  0.92022700  1
  H  H93  1  0.19851800  0.79240200  0.42022700  1
  H  H94  1  0.69851800  0.70759800  0.92022700  1
  H  H95  1  0.30148200  0.29240200  0.42022700  1
  H  H96  1  0.20116400  0.18889400  0.84171400  1
  H  H97  1  0.79883600  0.81110600  0.34171400  1
  H  H98  1  0.29883600  0.68889400  0.84171400  1
  H  H99  1  0.70116400  0.31110600  0.34171400  1
  H  H100  1  0.83165000  0.47943800  0.69619400  1
  H  H101  1  0.16835000  0.52056200  0.19619400  1
  H  H102  1  0.66835000  0.97943800  0.69619400  1
  H  H103  1  0.88283200  0.89703500  0.22803200  1
