# generated using pymatgen
data_CaAl2O4
_symmetry_space_group_name_H-M   'P 1'
_cell_length_a   8.21673500
_cell_length_b   8.78282000
_cell_length_c   17.65328901
_cell_angle_alpha   60.40331659
_cell_angle_beta   90.00000000
_cell_angle_gamma   90.00000000
_symmetry_Int_Tables_number   1
_chemical_formula_structural   CaAl2O4
_chemical_formula_sum   'Ca12 Al24 O48'
_cell_volume   1107.74609566
_cell_formula_units_Z   12
loop_
 _symmetry_equiv_pos_site_id
 _symmetry_equiv_pos_as_xyz
  1  'x, y, z'
loop_
 _atom_site_type_symbol
 _atom_site_label
 _atom_site_symmetry_multiplicity
 _atom_site_fract_x
 _atom_site_fract_y
 _atom_site_fract_z
 _atom_site_occupancy
  Ca  Ca0  1  0.45450200  0.50812600  0.75340100  1
  Ca  Ca1  1  0.95450200  0.49187400  0.74659900  1
  Ca  Ca2  1  0.54549800  0.49187400  0.24659900  1
  Ca  Ca3  1  0.04549800  0.50812600  0.25340100  1
  Ca  Ca4  1  0.53203500  0.80245400  0.92969900  1
  Ca  Ca5  1  0.03203500  0.19754600  0.57030100  1
  Ca  Ca6  1  0.46796500  0.19754600  0.07030100  1
  Ca  Ca7  1  0.96796500  0.80245400  0.42969900  1
  Ca  Ca8  1  0.96519200  0.85042500  0.91012700  1
  Ca  Ca9  1  0.46519200  0.14957500  0.58987300  1
  Ca  Ca10  1  0.03480800  0.14957500  0.08987300  1
  Ca  Ca11  1  0.53480800  0.85042500  0.41012700  1
  Al  Al12  1  0.66417300  0.15353200  0.90758100  1
  Al  Al13  1  0.16417300  0.84646800  0.59241900  1
  Al  Al14  1  0.33582700  0.84646800  0.09241900  1
  Al  Al15  1  0.83582700  0.15353200  0.40758100  1
  Al  Al16  1  0.27326500  0.15367900  0.90924100  1
  Al  Al17  1  0.77326500  0.84632100  0.59075900  1
  Al  Al18  1  0.72673500  0.84632100  0.09075900  1
  Al  Al19  1  0.22673500  0.15367900  0.40924100  1
  Al  Al20  1  0.77984400  0.46754100  0.92061600  1
  Al  Al21  1  0.27984400  0.53245900  0.57938400  1
  Al  Al22  1  0.22015600  0.53245900  0.07938400  1
  Al  Al23  1  0.72015600  0.46754100  0.42061600  1
  Al  Al24  1  0.16870700  0.47906400  0.92201500  1
  Al  Al25  1  0.66870700  0.52093600  0.57798500  1
  Al  Al26  1  0.83129300  0.52093600  0.07798500  1
  Al  Al27  1  0.33129300  0.47906400  0.42201500  1
  Al  Al28  1  0.27559900  0.81552500  0.76727000  1
  Al  Al29  1  0.77559900  0.18447500  0.73273000  1
  Al  Al30  1  0.72440100  0.18447500  0.23273000  1
  Al  Al31  1  0.22440100  0.81552500  0.26727000  1
  Al  Al32  1  0.67038200  0.81333700  0.76201900  1
  Al  Al33  1  0.17038200  0.18666300  0.73798100  1
  Al  Al34  1  0.32961800  0.18666300  0.23798100  1
  Al  Al35  1  0.82961800  0.81333700  0.26201900  1
  O  O36  1  0.75652000  0.27292000  0.80390600  1
  O  O37  1  0.25652000  0.72708000  0.69609400  1
  O  O38  1  0.24348000  0.72708000  0.19609400  1
  O  O39  1  0.74348000  0.27292000  0.30390600  1
  O  O40  1  0.27296700  0.38498000  0.86713700  1
  O  O41  1  0.77296700  0.61502000  0.63286300  1
  O  O42  1  0.72703300  0.61502000  0.13286300  1
  O  O43  1  0.22703300  0.38498000  0.36713700  1
  O  O44  1  0.64335900  0.29014500  0.95444900  1
  O  O45  1  0.14335900  0.70985500  0.54555100  1
  O  O46  1  0.35664100  0.70985500  0.04555100  1
  O  O47  1  0.85664100  0.29014500  0.45444900  1
  O  O48  1  0.97627700  0.37505300  0.94698100  1
  O  O49  1  0.47627700  0.62494700  0.55301900  1
  O  O50  1  0.02372300  0.62494700  0.05301900  1
  O  O51  1  0.52372300  0.37505300  0.44698100  1
  O  O52  1  0.77267800  0.61004100  0.80566000  1
  O  O53  1  0.27267800  0.38995900  0.69434000  1
  O  O54  1  0.22732200  0.38995900  0.19434000  1
  O  O55  1  0.72732200  0.61004100  0.30566000  1
  O  O56  1  0.13614800  0.09296300  0.85136200  1
  O  O57  1  0.47463600  0.75589100  0.81204300  1
  O  O58  1  0.52536400  0.24410900  0.18795700  1
  O  O59  1  0.02536400  0.75589100  0.31204300  1
  O  O60  1  0.14531400  0.70942000  0.85873100  1
  O  O61  1  0.64531400  0.29058000  0.64126900  1
  O  O62  1  0.85468600  0.29058000  0.14126900  1
  O  O63  1  0.35468600  0.70942000  0.35873100  1
  O  O64  1  0.74014900  0.59096700  0.97395200  1
  O  O65  1  0.24014900  0.40903300  0.52604800  1
  O  O66  1  0.25985100  0.40903300  0.02604800  1
  O  O67  1  0.75985100  0.59096700  0.47395200  1
  O  O68  1  0.75525800  0.95360900  0.79704600  1
  O  O69  1  0.25525800  0.04639100  0.70295400  1
  O  O70  1  0.24474200  0.04639100  0.20295400  1
  O  O71  1  0.74474200  0.95360900  0.29704600  1
  O  O72  1  0.73989100  0.94755300  0.47597500  1
  O  O73  1  0.23989100  0.05244700  0.02402500  1
  O  O74  1  0.26010900  0.05244700  0.52402500  1
  O  O75  1  0.76010900  0.94755300  0.97597500  1
  O  O76  1  0.03203500  0.09383400  0.38976600  1
  O  O77  1  0.53203500  0.90616600  0.11023400  1
  O  O78  1  0.96796500  0.90616600  0.61023400  1
  O  O79  1  0.46796500  0.09383400  0.88976600  1
  O  O80  1  0.36385200  0.09296300  0.35136200  1
  O  O81  1  0.86385200  0.90703700  0.14863800  1
  O  O82  1  0.63614800  0.90703700  0.64863800  1
  O  O83  1  0.97463600  0.24410900  0.68795700  1
