# generated using pymatgen
data_KMnBr3
_symmetry_space_group_name_H-M   'P 1'
_cell_length_a   4.09905200
_cell_length_b   9.46228500
_cell_length_c   15.44821300
_cell_angle_alpha   90.00000000
_cell_angle_beta   90.00000000
_cell_angle_gamma   90.00000000
_symmetry_Int_Tables_number   1
_chemical_formula_structural   KMnBr3
_chemical_formula_sum   'K4 Mn4 Br12'
_cell_volume   599.18054173
_cell_formula_units_Z   4
loop_
 _symmetry_equiv_pos_site_id
 _symmetry_equiv_pos_as_xyz
  1  'x, y, z'
loop_
 _atom_site_type_symbol
 _atom_site_label
 _atom_site_symmetry_multiplicity
 _atom_site_fract_x
 _atom_site_fract_y
 _atom_site_fract_z
 _atom_site_occupancy
  K  K0  1  0.75000000  0.06872300  0.67700400  1
  K  K1  1  0.25000000  0.93127700  0.32299600  1
  K  K2  1  0.75000000  0.56872300  0.82299600  1
  K  K3  1  0.25000000  0.43127700  0.17700400  1
  Mn  Mn4  1  0.25000000  0.66530500  0.55361500  1
  Mn  Mn5  1  0.75000000  0.33469500  0.44638500  1
  Mn  Mn6  1  0.25000000  0.16530500  0.94638500  1
  Mn  Mn7  1  0.75000000  0.83469500  0.05361500  1
  Br  Br8  1  0.25000000  0.78294700  0.70432800  1
  Br  Br9  1  0.75000000  0.21705300  0.29567200  1
  Br  Br10  1  0.25000000  0.28294700  0.79567200  1
  Br  Br11  1  0.75000000  0.71705300  0.20432800  1
  Br  Br12  1  0.75000000  0.82616500  0.49191500  1
  Br  Br13  1  0.25000000  0.17383500  0.50808500  1
  Br  Br14  1  0.75000000  0.32616500  0.00808500  1
  Br  Br15  1  0.25000000  0.67383500  0.99191500  1
  Br  Br16  1  0.25000000  0.51897200  0.40044700  1
  Br  Br17  1  0.75000000  0.48102800  0.59955300  1
  Br  Br18  1  0.25000000  0.01897200  0.09955300  1
  Br  Br19  1  0.75000000  0.98102800  0.90044700  1
