# generated using pymatgen
data_CaAl2SiO6
_symmetry_space_group_name_H-M   'P 1'
_cell_length_a   8.75944600
_cell_length_b   5.32981400
_cell_length_c   9.78556859
_cell_angle_alpha   73.38110837
_cell_angle_beta   90.00000000
_cell_angle_gamma   90.00000000
_symmetry_Int_Tables_number   1
_chemical_formula_structural   CaAl2SiO6
_chemical_formula_sum   'Ca4 Al8 Si4 O24'
_cell_volume   437.76774840
_cell_formula_units_Z   4
loop_
 _symmetry_equiv_pos_site_id
 _symmetry_equiv_pos_as_xyz
  1  'x, y, z'
loop_
 _atom_site_type_symbol
 _atom_site_label
 _atom_site_symmetry_multiplicity
 _atom_site_fract_x
 _atom_site_fract_y
 _atom_site_fract_z
 _atom_site_occupancy
  Ca  Ca0  1  0.93780700  0.74775400  0.76773300  1
  Ca  Ca1  1  0.43780700  0.75224600  0.23226700  1
  Ca  Ca2  1  0.56219300  0.24775400  0.76773300  1
  Ca  Ca3  1  0.06219300  0.25224600  0.23226700  1
  Al  Al4  1  0.15284700  0.79443300  0.03779800  1
  Al  Al5  1  0.65284700  0.70556700  0.96220200  1
  Al  Al6  1  0.84715300  0.20556700  0.96220200  1
  Al  Al7  1  0.34715300  0.29443300  0.03779800  1
  Al  Al8  1  0.34125100  0.76009200  0.75658100  1
  Al  Al9  1  0.84125100  0.73990800  0.24341900  1
  Al  Al10  1  0.15874900  0.26009200  0.75658100  1
  Al  Al11  1  0.65874900  0.23990800  0.24341900  1
  Si  Si12  1  0.65372000  0.77905600  0.53635700  1
  Si  Si13  1  0.15372000  0.72094400  0.46364300  1
  Si  Si14  1  0.34628000  0.22094400  0.46364300  1
  Si  Si15  1  0.84628000  0.27905600  0.53635700  1
  O  O16  1  0.16983600  0.89185000  0.84633500  1
  O  O17  1  0.97767600  0.67654400  0.11737600  1
  O  O18  1  0.22625800  0.02654700  0.11404700  1
  O  O19  1  0.66557500  0.86677800  0.36158200  1
  O  O20  1  0.49078500  0.70483200  0.61470700  1
  O  O21  1  0.74152700  0.00490900  0.59555700  1
  O  O22  1  0.16557500  0.63322200  0.63841800  1
  O  O23  1  0.99078500  0.79516800  0.38529300  1
  O  O24  1  0.24152700  0.49509100  0.40444300  1
  O  O25  1  0.66983600  0.60815000  0.15366500  1
  O  O26  1  0.47767600  0.82345600  0.88262400  1
  O  O27  1  0.72625800  0.47345300  0.88595300  1
  O  O28  1  0.33442500  0.13322200  0.63841800  1
  O  O29  1  0.50921500  0.29516800  0.38529300  1
  O  O30  1  0.25847300  0.99509100  0.40444300  1
  O  O31  1  0.83016400  0.10815000  0.15366500  1
  O  O32  1  0.02232400  0.32345600  0.88262400  1
  O  O33  1  0.77374200  0.97345300  0.88595300  1
  O  O34  1  0.33016400  0.39185000  0.84633500  1
  O  O35  1  0.52232400  0.17654400  0.11737600  1
  O  O36  1  0.27374200  0.52654700  0.11404700  1
  O  O37  1  0.83442500  0.36677800  0.36158200  1
  O  O38  1  0.00921500  0.20483200  0.61470700  1
  O  O39  1  0.75847300  0.50490900  0.59555700  1
