# generated using pymatgen
data_AgBiS2
_symmetry_space_group_name_H-M   'P 1'
_cell_length_a   6.78526032
_cell_length_b   6.78526032
_cell_length_c   6.78526100
_cell_angle_alpha   34.72572267
_cell_angle_beta   34.72572267
_cell_angle_gamma   34.72571731
_symmetry_Int_Tables_number   1
_chemical_formula_structural   AgBiS2
_chemical_formula_sum   'Ag1 Bi1 S2'
_cell_volume   90.46991530
_cell_formula_units_Z   1
loop_
 _symmetry_equiv_pos_site_id
 _symmetry_equiv_pos_as_xyz
  1  'x, y, z'
loop_
 _atom_site_type_symbol
 _atom_site_label
 _atom_site_symmetry_multiplicity
 _atom_site_fract_x
 _atom_site_fract_y
 _atom_site_fract_z
 _atom_site_occupancy
  Ag  Ag0  1  0.50000000  0.50000000  0.50000000  1
  Bi  Bi1  1  0.00000000  0.00000000  0.00000000  1
  S  S2  1  0.75259300  0.75259300  0.75259300  1
  S  S3  1  0.24740700  0.24740700  0.24740700  1
