# generated using pymatgen
data_Hf(Te4Cl3)2
_symmetry_space_group_name_H-M   'P 1'
_cell_length_a   7.32327200
_cell_length_b   9.00442768
_cell_length_c   16.99776138
_cell_angle_alpha   103.94775178
_cell_angle_beta   100.10607134
_cell_angle_gamma   93.66373519
_symmetry_Int_Tables_number   1
_chemical_formula_structural   Hf(Te4Cl3)2
_chemical_formula_sum   'Hf2 Te16 Cl12'
_cell_volume   1064.30318332
_cell_formula_units_Z   2
loop_
 _symmetry_equiv_pos_site_id
 _symmetry_equiv_pos_as_xyz
  1  'x, y, z'
loop_
 _atom_site_type_symbol
 _atom_site_label
 _atom_site_symmetry_multiplicity
 _atom_site_fract_x
 _atom_site_fract_y
 _atom_site_fract_z
 _atom_site_occupancy
  Hf  Hf0  1  0.00000000  0.00000000  0.50000000  1
  Hf  Hf1  1  0.00000000  0.00000000  0.00000000  1
  Te  Te2  1  0.54065700  0.71314600  0.59839600  1
  Te  Te3  1  0.23503800  0.66632000  0.67033800  1
  Te  Te4  1  0.76496200  0.33368000  0.32966200  1
  Te  Te5  1  0.20988600  0.44793100  0.22186900  1
  Te  Te6  1  0.54889600  0.27614500  0.17391100  1
  Te  Te7  1  0.45110400  0.72385500  0.82608900  1
  Te  Te8  1  0.64672400  0.42797300  0.60908200  1
  Te  Te9  1  0.35327600  0.57202700  0.39091800  1
  Te  Te10  1  0.79011400  0.55206900  0.77813100  1
  Te  Te11  1  0.71486800  0.49988700  0.11146800  1
  Te  Te12  1  0.71497500  0.29646600  0.83701300  1
  Te  Te13  1  0.28502500  0.70353400  0.16298700  1
  Te  Te14  1  0.34129100  0.25120600  0.76838700  1
  Te  Te15  1  0.65870900  0.74879400  0.23161300  1
  Te  Te16  1  0.28513200  0.50011300  0.88853200  1
  Te  Te17  1  0.45934300  0.28685400  0.40160400  1
  Cl  Cl18  1  0.90427800  0.11352400  0.63076500  1
  Cl  Cl19  1  0.09572200  0.88647600  0.36923500  1
  Cl  Cl20  1  0.67573800  0.98415600  0.42454300  1
  Cl  Cl21  1  0.32426200  0.01584400  0.57545700  1
  Cl  Cl22  1  0.93094000  0.73748000  0.51779900  1
  Cl  Cl23  1  0.06906000  0.26252000  0.48220100  1
  Cl  Cl24  1  0.99512900  0.93853600  0.85158500  1
  Cl  Cl25  1  0.00487100  0.06146400  0.14841500  1
  Cl  Cl26  1  0.69803000  0.10629500  0.97608900  1
  Cl  Cl27  1  0.30197000  0.89370500  0.02391100  1
  Cl  Cl28  1  0.83503000  0.74125600  0.98466500  1
  Cl  Cl29  1  0.16497000  0.25874400  0.01533500  1
