# generated using pymatgen
data_Hg3PO4
_symmetry_space_group_name_H-M   'P 1'
_cell_length_a   5.14574900
_cell_length_b   9.00708800
_cell_length_c   14.53643190
_cell_angle_alpha   57.33125296
_cell_angle_beta   90.00000000
_cell_angle_gamma   90.00000000
_symmetry_Int_Tables_number   1
_chemical_formula_structural   Hg3PO4
_chemical_formula_sum   'Hg12 P4 O16'
_cell_volume   567.15595794
_cell_formula_units_Z   4
loop_
 _symmetry_equiv_pos_site_id
 _symmetry_equiv_pos_as_xyz
  1  'x, y, z'
loop_
 _atom_site_type_symbol
 _atom_site_label
 _atom_site_symmetry_multiplicity
 _atom_site_fract_x
 _atom_site_fract_y
 _atom_site_fract_z
 _atom_site_occupancy
  Hg  Hg0  1  0.15225500  0.44367900  0.37563500  1
  Hg  Hg1  1  0.36103100  0.73547800  0.95084500  1
  Hg  Hg2  1  0.13896900  0.73547800  0.45084500  1
  Hg  Hg3  1  0.63896900  0.26452200  0.04915500  1
  Hg  Hg4  1  0.86103100  0.26452200  0.54915500  1
  Hg  Hg5  1  0.65225500  0.55632100  0.12436500  1
  Hg  Hg6  1  0.84774500  0.55632100  0.62436500  1
  Hg  Hg7  1  0.34774500  0.44367900  0.87563500  1
  Hg  Hg8  1  0.36986600  0.95272900  0.58882800  1
  Hg  Hg9  1  0.86986600  0.04727100  0.91117200  1
  Hg  Hg10  1  0.63013400  0.04727100  0.41117200  1
  Hg  Hg11  1  0.13013400  0.95272900  0.08882800  1
  P  P12  1  0.11317200  0.23580700  0.22669400  1
  P  P13  1  0.88682800  0.76419300  0.77330600  1
  P  P14  1  0.61317200  0.76419300  0.27330600  1
  P  P15  1  0.38682800  0.23580700  0.72669400  1
  O  O16  1  0.49543600  0.40571600  0.71925500  1
  O  O17  1  0.99543600  0.59428400  0.78074500  1
  O  O18  1  0.50456400  0.59428400  0.28074500  1
  O  O19  1  0.00456400  0.40571600  0.21925500  1
  O  O20  1  0.08460900  0.23943200  0.72943100  1
  O  O21  1  0.58460900  0.76056800  0.77056900  1
  O  O22  1  0.91539100  0.76056800  0.27056900  1
  O  O23  1  0.41539100  0.23943200  0.22943100  1
  O  O24  1  0.48414600  0.06919600  0.83576600  1
  O  O25  1  0.02669800  0.22955600  0.12621700  1
  O  O26  1  0.51585400  0.93080400  0.16423400  1
  O  O27  1  0.01585400  0.06919600  0.33576600  1
  O  O28  1  0.47330200  0.22955600  0.62621700  1
  O  O29  1  0.97330200  0.77044400  0.87378300  1
  O  O30  1  0.52669800  0.77044400  0.37378300  1
  O  O31  1  0.98414600  0.93080400  0.66423400  1
