# generated using pymatgen
data_CaSi2O5
_symmetry_space_group_name_H-M   'P 1'
_cell_length_a   6.62684200
_cell_length_b   7.31331135
_cell_length_c   7.62781446
_cell_angle_alpha   69.50773535
_cell_angle_beta   81.40642577
_cell_angle_gamma   84.86474286
_symmetry_Int_Tables_number   1
_chemical_formula_structural   CaSi2O5
_chemical_formula_sum   'Ca4 Si8 O20'
_cell_volume   342.11845156
_cell_formula_units_Z   4
loop_
 _symmetry_equiv_pos_site_id
 _symmetry_equiv_pos_as_xyz
  1  'x, y, z'
loop_
 _atom_site_type_symbol
 _atom_site_label
 _atom_site_symmetry_multiplicity
 _atom_site_fract_x
 _atom_site_fract_y
 _atom_site_fract_z
 _atom_site_occupancy
  Ca  Ca0  1  0.61019500  0.02875700  0.21369800  1
  Ca  Ca1  1  0.38980500  0.97124300  0.78630200  1
  Ca  Ca2  1  0.81624500  0.45811000  0.32096900  1
  Ca  Ca3  1  0.18375500  0.54189000  0.67903100  1
  Si  Si4  1  0.66066500  0.68374100  0.57936200  1
  Si  Si5  1  0.33933500  0.31625900  0.42063800  1
  Si  Si6  1  0.12593600  0.19859800  0.07019300  1
  Si  Si7  1  0.87406400  0.80140200  0.92980700  1
  Si  Si8  1  0.80202600  0.24712600  0.77942800  1
  Si  Si9  1  0.19797400  0.75287400  0.22057200  1
  Si  Si10  1  0.00000000  0.00000000  0.50000000  1
  Si  Si11  1  0.50000000  0.50000000  0.00000000  1
  O  O12  1  0.75198400  0.60106800  0.98644900  1
  O  O13  1  0.24801600  0.39893200  0.01355100  1
  O  O14  1  0.47610600  0.65239000  0.75829400  1
  O  O15  1  0.52389400  0.34761000  0.24170600  1
  O  O16  1  0.62076400  0.30474900  0.93463000  1
  O  O17  1  0.37923600  0.69525100  0.06537000  1
  O  O18  1  0.24878600  0.10025800  0.46015500  1
  O  O19  1  0.75121400  0.89974200  0.53984500  1
  O  O20  1  0.02163700  0.22662300  0.87753300  1
  O  O21  1  0.97836300  0.77337700  0.12246700  1
  O  O22  1  0.88449100  0.18997600  0.58147000  1
  O  O23  1  0.11550900  0.81002400  0.41853000  1
  O  O24  1  0.28132200  0.00378800  0.09764100  1
  O  O25  1  0.71867800  0.99621200  0.90235900  1
  O  O26  1  0.17258400  0.50183900  0.36546900  1
  O  O27  1  0.82741600  0.49816100  0.63453100  1
  O  O28  1  0.05015500  0.84241200  0.74427400  1
  O  O29  1  0.94984500  0.15758800  0.25572600  1
  O  O30  1  0.42617500  0.30062100  0.61238700  1
  O  O31  1  0.57382500  0.69937900  0.38761300  1
