# generated using pymatgen
data_CeZrO4
_symmetry_space_group_name_H-M   'P 1'
_cell_length_a   5.38765100
_cell_length_b   5.38765100
_cell_length_c   5.30327500
_cell_angle_alpha   90.00000000
_cell_angle_beta   90.00000000
_cell_angle_gamma   90.00000000
_symmetry_Int_Tables_number   1
_chemical_formula_structural   CeZrO4
_chemical_formula_sum   'Ce2 Zr2 O8'
_cell_volume   153.93701419
_cell_formula_units_Z   2
loop_
 _symmetry_equiv_pos_site_id
 _symmetry_equiv_pos_as_xyz
  1  'x, y, z'
loop_
 _atom_site_type_symbol
 _atom_site_label
 _atom_site_symmetry_multiplicity
 _atom_site_fract_x
 _atom_site_fract_y
 _atom_site_fract_z
 _atom_site_occupancy
  Ce  Ce0  1  0.00000000  0.00000000  0.00000000  1
  Ce  Ce1  1  0.50000000  0.50000000  0.00000000  1
  Zr  Zr2  1  0.50000000  0.00000000  0.50000000  1
  Zr  Zr3  1  0.00000000  0.50000000  0.50000000  1
  O  O4  1  0.71370200  0.78629800  0.74483300  1
  O  O5  1  0.78629800  0.28629800  0.74483300  1
  O  O6  1  0.28629800  0.21370200  0.74483300  1
  O  O7  1  0.21370200  0.71370200  0.74483300  1
  O  O8  1  0.71370200  0.21370200  0.25516700  1
  O  O9  1  0.78629800  0.71370200  0.25516700  1
  O  O10  1  0.28629800  0.78629800  0.25516700  1
  O  O11  1  0.21370200  0.28629800  0.25516700  1
