# generated using pymatgen
data_CaTeO3
_symmetry_space_group_name_H-M   'P 1'
_cell_length_a   10.59815800
_cell_length_b   11.37964547
_cell_length_c   13.93153641
_cell_angle_alpha   103.34600353
_cell_angle_beta   85.72763984
_cell_angle_gamma   108.87402399
_symmetry_Int_Tables_number   1
_chemical_formula_structural   CaTeO3
_chemical_formula_sum   'Ca18 Te18 O54'
_cell_volume   1546.91306391
_cell_formula_units_Z   18
loop_
 _symmetry_equiv_pos_site_id
 _symmetry_equiv_pos_as_xyz
  1  'x, y, z'
loop_
 _atom_site_type_symbol
 _atom_site_label
 _atom_site_symmetry_multiplicity
 _atom_site_fract_x
 _atom_site_fract_y
 _atom_site_fract_z
 _atom_site_occupancy
  Ca  Ca0  1  0.90349700  0.05131400  0.32582500  1
  Ca  Ca1  1  0.09650300  0.94868600  0.67417500  1
  Ca  Ca2  1  0.52423700  0.03089000  0.63265500  1
  Ca  Ca3  1  0.47576300  0.96911000  0.36734500  1
  Ca  Ca4  1  0.18635500  0.03386100  0.97141900  1
  Ca  Ca5  1  0.81364500  0.96613900  0.02858100  1
  Ca  Ca6  1  0.08844700  0.38451600  0.43538500  1
  Ca  Ca7  1  0.91155300  0.61548400  0.56461500  1
  Ca  Ca8  1  0.74491400  0.41562800  0.73687100  1
  Ca  Ca9  1  0.25508600  0.58437200  0.26312900  1
  Ca  Ca10  1  0.40248200  0.37120400  0.07666000  1
  Ca  Ca11  1  0.59751800  0.62879600  0.92334000  1
  Ca  Ca12  1  0.06509200  0.86132200  0.40845100  1
  Ca  Ca13  1  0.93490800  0.13867800  0.59154900  1
  Ca  Ca14  1  0.69886300  0.86027900  0.75670400  1
  Ca  Ca15  1  0.30113700  0.13972100  0.24329600  1
  Ca  Ca16  1  0.43443000  0.88203700  0.08309000  1
  Ca  Ca17  1  0.56557000  0.11796300  0.91691000  1
  Te  Te18  1  0.06434700  0.82041500  0.13504200  1
  Te  Te19  1  0.93565300  0.17958500  0.86495800  1
  Te  Te20  1  0.75044600  0.83469900  0.51909700  1
  Te  Te21  1  0.24955400  0.16530100  0.48090300  1
  Te  Te22  1  0.37746100  0.81098200  0.83516400  1
  Te  Te23  1  0.62253900  0.18901800  0.16483600  1
  Te  Te24  1  0.90444100  0.55524700  0.31069100  1
  Te  Te25  1  0.09555900  0.44475300  0.68930900  1
  Te  Te26  1  0.48516800  0.52243500  0.64883300  1
  Te  Te27  1  0.51483200  0.47756500  0.35116700  1
  Te  Te28  1  0.22584500  0.51620500  0.96999200  1
  Te  Te29  1  0.77415500  0.48379500  0.03000800  1
  Te  Te30  1  0.04671200  0.26598800  0.14178100  1
  Te  Te31  1  0.95328800  0.73401200  0.85821900  1
  Te  Te32  1  0.71738200  0.27620600  0.45448100  1
  Te  Te33  1  0.28261800  0.72379400  0.54551900  1
  Te  Te34  1  0.39171900  0.23808600  0.78723800  1
  Te  Te35  1  0.60828100  0.76191400  0.21276200  1
  O  O36  1  0.99905800  0.89035900  0.04506800  1
  O  O37  1  0.00094200  0.10964100  0.95493200  1
  O  O38  1  0.86851000  0.81808900  0.60930800  1
  O  O39  1  0.13149000  0.18191100  0.39069200  1
  O  O40  1  0.52578900  0.78445000  0.88409900  1
  O  O41  1  0.47421100  0.21555000  0.11590100  1
  O  O42  1  0.23873400  0.93587400  0.14069300  1
  O  O43  1  0.76126600  0.06412600  0.85930700  1
  O  O44  1  0.88129500  0.95008600  0.45566300  1
  O  O45  1  0.11870500  0.04991400  0.54433700  1
  O  O46  1  0.49460200  0.92593000  0.76261800  1
  O  O47  1  0.50539800  0.07407000  0.23738200  1
  O  O48  1  0.99800000  0.89364900  0.25471100  1
  O  O49  1  0.00200000  0.10635100  0.74528900  1
  O  O50  1  0.71703600  0.97229700  0.61688800  1
  O  O51  1  0.28296400  0.02770300  0.38311200  1
  O  O52  1  0.36801400  0.94562100  0.94445900  1
  O  O53  1  0.63198600  0.05437900  0.05554100  1
  O  O54  1  0.92277300  0.47173000  0.40938900  1
  O  O55  1  0.07722700  0.52827000  0.59061100  1
  O  O56  1  0.33729200  0.56351000  0.71422500  1
  O  O57  1  0.66270800  0.43649000  0.28577500  1
  O  O58  1  0.21980200  0.47989300  0.09659700  1
  O  O59  1  0.78019800  0.52010700  0.90340300  1
  O  O60  1  0.08292200  0.67080100  0.29924600  1
  O  O61  1  0.91707800  0.32919900  0.70075400  1
  O  O62  1  0.57250800  0.50814200  0.75762900  1
  O  O63  1  0.42749200  0.49185800  0.24237100  1
  O  O64  1  0.38854700  0.48337200  0.94046400  1
  O  O65  1  0.61145300  0.51662800  0.05953600  1
  O  O66  1  0.85793700  0.68229400  0.40791800  1
  O  O67  1  0.14206300  0.31770600  0.59208200  1
  O  O68  1  0.58970100  0.68589500  0.63438500  1
  O  O69  1  0.41029900  0.31410500  0.36561500  1
  O  O70  1  0.27288900  0.69402700  0.99863800  1
  O  O71  1  0.72711100  0.30597300  0.00136200  1
  O  O72  1  0.43022600  0.77049700  0.22971000  1
  O  O73  1  0.56977400  0.22950300  0.77029000  1
  O  O74  1  0.12921600  0.77722300  0.54058400  1
  O  O75  1  0.87078400  0.22277700  0.45941600  1
  O  O76  1  0.80180800  0.79530200  0.88016200  1
  O  O77  1  0.19819200  0.20469800  0.11983800  1
  O  O78  1  0.63337800  0.80143000  0.08553800  1
  O  O79  1  0.36662200  0.19857000  0.91446200  1
  O  O80  1  0.26755500  0.59178800  0.43156700  1
  O  O81  1  0.73244500  0.40821200  0.56843300  1
  O  O82  1  0.08394100  0.87722900  0.82084000  1
  O  O83  1  0.91605900  0.12277100  0.17916000  1
  O  O84  1  0.68057700  0.92482600  0.29527300  1
  O  O85  1  0.31942300  0.07517400  0.70472700  1
  O  O86  1  0.41038600  0.86261100  0.50014600  1
  O  O87  1  0.58961400  0.13738900  0.49985400  1
  O  O88  1  0.90041300  0.62488000  0.73342000  1
  O  O89  1  0.09958700  0.37512000  0.26658000  1
