# generated using pymatgen
data_Ta2N
_symmetry_space_group_name_H-M   'P 1'
_cell_length_a   3.11286151
_cell_length_b   3.11286151
_cell_length_c   4.86984100
_cell_angle_alpha   90.00000000
_cell_angle_beta   90.00000000
_cell_angle_gamma   119.99998950
_symmetry_Int_Tables_number   1
_chemical_formula_structural   Ta2N
_chemical_formula_sum   'Ta2 N1'
_cell_volume   40.86627539
_cell_formula_units_Z   1
loop_
 _symmetry_equiv_pos_site_id
 _symmetry_equiv_pos_as_xyz
  1  'x, y, z'
loop_
 _atom_site_type_symbol
 _atom_site_label
 _atom_site_symmetry_multiplicity
 _atom_site_fract_x
 _atom_site_fract_y
 _atom_site_fract_z
 _atom_site_occupancy
  Ta  Ta0  1  0.66666700  0.33333300  0.74528900  1
  Ta  Ta1  1  0.33333300  0.66666700  0.25471100  1
  N  N2  1  0.00000000  0.00000000  0.00000000  1
