# generated using pymatgen
data_IF3
_symmetry_space_group_name_H-M   'P 1'
_cell_length_a   4.72860500
_cell_length_b   6.75507200
_cell_length_c   9.12442500
_cell_angle_alpha   90.00000000
_cell_angle_beta   90.00000000
_cell_angle_gamma   90.00000000
_symmetry_Int_Tables_number   1
_chemical_formula_structural   IF3
_chemical_formula_sum   'I4 F12'
_cell_volume   291.45299683
_cell_formula_units_Z   4
loop_
 _symmetry_equiv_pos_site_id
 _symmetry_equiv_pos_as_xyz
  1  'x, y, z'
loop_
 _atom_site_type_symbol
 _atom_site_label
 _atom_site_symmetry_multiplicity
 _atom_site_fract_x
 _atom_site_fract_y
 _atom_site_fract_z
 _atom_site_occupancy
  I  I0  1  0.52322900  0.75000000  0.81241400  1
  I  I1  1  0.02322900  0.25000000  0.68758600  1
  I  I2  1  0.47677100  0.25000000  0.18758600  1
  I  I3  1  0.97677100  0.75000000  0.31241400  1
  F  F4  1  0.85153600  0.75000000  0.93417800  1
  F  F5  1  0.35153600  0.25000000  0.56582200  1
  F  F6  1  0.14846400  0.25000000  0.06582200  1
  F  F7  1  0.64846400  0.75000000  0.43417800  1
  F  F8  1  0.91399400  0.45602800  0.33124300  1
  F  F9  1  0.41399400  0.54397200  0.16875700  1
  F  F10  1  0.08600600  0.95602800  0.66875700  1
  F  F11  1  0.58600600  0.04397200  0.83124300  1
  F  F12  1  0.08600600  0.54397200  0.66875700  1
  F  F13  1  0.58600600  0.45602800  0.83124300  1
  F  F14  1  0.91399400  0.04397200  0.33124300  1
  F  F15  1  0.41399400  0.95602800  0.16875700  1
