# generated using pymatgen
data_Na3TiCl6
_symmetry_space_group_name_H-M   'P 1'
_cell_length_a   7.12282700
_cell_length_b   6.76136300
_cell_length_c   11.99634684
_cell_angle_alpha   55.83091270
_cell_angle_beta   90.00000000
_cell_angle_gamma   90.00000000
_symmetry_Int_Tables_number   1
_chemical_formula_structural   Na3TiCl6
_chemical_formula_sum   'Na6 Ti2 Cl12'
_cell_volume   478.01621704
_cell_formula_units_Z   2
loop_
 _symmetry_equiv_pos_site_id
 _symmetry_equiv_pos_as_xyz
  1  'x, y, z'
loop_
 _atom_site_type_symbol
 _atom_site_label
 _atom_site_symmetry_multiplicity
 _atom_site_fract_x
 _atom_site_fract_y
 _atom_site_fract_z
 _atom_site_occupancy
  Na  Na0  1  0.08095000  0.28042100  0.24385800  1
  Na  Na1  1  0.58095000  0.71957900  0.25614200  1
  Na  Na2  1  0.00000000  0.50000000  0.50000000  1
  Na  Na3  1  0.50000000  0.50000000  0.00000000  1
  Na  Na4  1  0.91905000  0.71957900  0.75614200  1
  Na  Na5  1  0.41905000  0.28042100  0.74385800  1
  Ti  Ti6  1  0.50000000  0.00000000  0.50000000  1
  Ti  Ti7  1  0.00000000  0.00000000  0.00000000  1
  Cl  Cl8  1  0.45060000  0.10058800  0.27005500  1
  Cl  Cl9  1  0.67672000  0.64050400  0.56311800  1
  Cl  Cl10  1  0.17672000  0.35949600  0.93688200  1
  Cl  Cl11  1  0.32328000  0.35949600  0.43688200  1
  Cl  Cl12  1  0.28791300  0.77190800  0.06975300  1
  Cl  Cl13  1  0.78791300  0.22809200  0.43024700  1
  Cl  Cl14  1  0.71208700  0.22809200  0.93024700  1
  Cl  Cl15  1  0.21208700  0.77190800  0.56975300  1
  Cl  Cl16  1  0.54940000  0.89941200  0.72994500  1
  Cl  Cl17  1  0.04940000  0.10058800  0.77005500  1
  Cl  Cl18  1  0.82328000  0.64050400  0.06311800  1
  Cl  Cl19  1  0.95060000  0.89941200  0.22994500  1
