# generated using pymatgen
data_Rb3PbCl5
_symmetry_space_group_name_H-M   'P 1'
_cell_length_a   8.49335700
_cell_length_b   8.95980600
_cell_length_c   15.96359900
_cell_angle_alpha   90.00000000
_cell_angle_beta   90.00000000
_cell_angle_gamma   90.00000000
_symmetry_Int_Tables_number   1
_chemical_formula_structural   Rb3PbCl5
_chemical_formula_sum   'Rb12 Pb4 Cl20'
_cell_volume   1214.81122259
_cell_formula_units_Z   4
loop_
 _symmetry_equiv_pos_site_id
 _symmetry_equiv_pos_as_xyz
  1  'x, y, z'
loop_
 _atom_site_type_symbol
 _atom_site_label
 _atom_site_symmetry_multiplicity
 _atom_site_fract_x
 _atom_site_fract_y
 _atom_site_fract_z
 _atom_site_occupancy
  Rb  Rb0  1  0.96702600  0.26162600  0.04590000  1
  Rb  Rb1  1  0.46702600  0.23837400  0.95410000  1
  Rb  Rb2  1  0.53297400  0.76162600  0.45410000  1
  Rb  Rb3  1  0.03297400  0.73837400  0.54590000  1
  Rb  Rb4  1  0.03297400  0.73837400  0.95410000  1
  Rb  Rb5  1  0.53297400  0.76162600  0.04590000  1
  Rb  Rb6  1  0.46702600  0.23837400  0.54590000  1
  Rb  Rb7  1  0.96702600  0.26162600  0.45410000  1
  Rb  Rb8  1  0.13679600  0.07905700  0.75000000  1
  Rb  Rb9  1  0.63679600  0.42094300  0.25000000  1
  Rb  Rb10  1  0.36320400  0.57905700  0.75000000  1
  Rb  Rb11  1  0.86320400  0.92094300  0.25000000  1
  Pb  Pb12  1  0.63914800  0.93944400  0.75000000  1
  Pb  Pb13  1  0.13914800  0.56055600  0.25000000  1
  Pb  Pb14  1  0.86085200  0.43944400  0.75000000  1
  Pb  Pb15  1  0.36085200  0.06055600  0.25000000  1
  Cl  Cl16  1  0.12728500  0.38990200  0.87480800  1
  Cl  Cl17  1  0.62728500  0.11009800  0.12519200  1
  Cl  Cl18  1  0.37271500  0.88990200  0.62519200  1
  Cl  Cl19  1  0.87271500  0.61009800  0.37480800  1
  Cl  Cl20  1  0.87271500  0.61009800  0.12519200  1
  Cl  Cl21  1  0.37271500  0.88990200  0.87480800  1
  Cl  Cl22  1  0.62728500  0.11009800  0.37480800  1
  Cl  Cl23  1  0.12728500  0.38990200  0.62519200  1
  Cl  Cl24  1  0.17610800  0.95479600  0.11404900  1
  Cl  Cl25  1  0.67610800  0.54520400  0.88595100  1
  Cl  Cl26  1  0.32389200  0.45479600  0.38595100  1
  Cl  Cl27  1  0.82389200  0.04520400  0.61404900  1
  Cl  Cl28  1  0.82389200  0.04520400  0.88595100  1
  Cl  Cl29  1  0.32389200  0.45479600  0.11404900  1
  Cl  Cl30  1  0.67610800  0.54520400  0.61404900  1
  Cl  Cl31  1  0.17610800  0.95479600  0.38595100  1
  Cl  Cl32  1  0.02059800  0.27739700  0.25000000  1
  Cl  Cl33  1  0.52059800  0.22260300  0.75000000  1
  Cl  Cl34  1  0.47940200  0.77739700  0.25000000  1
  Cl  Cl35  1  0.97940200  0.72260300  0.75000000  1
