# generated using pymatgen
data_CsPd2Cl5
_symmetry_space_group_name_H-M   'P 1'
_cell_length_a   5.56217700
_cell_length_b   10.95102400
_cell_length_c   16.32329500
_cell_angle_alpha   90.00000000
_cell_angle_beta   90.00000000
_cell_angle_gamma   90.00000000
_symmetry_Int_Tables_number   1
_chemical_formula_structural   CsPd2Cl5
_chemical_formula_sum   'Cs4 Pd8 Cl20'
_cell_volume   994.27693543
_cell_formula_units_Z   4
loop_
 _symmetry_equiv_pos_site_id
 _symmetry_equiv_pos_as_xyz
  1  'x, y, z'
loop_
 _atom_site_type_symbol
 _atom_site_label
 _atom_site_symmetry_multiplicity
 _atom_site_fract_x
 _atom_site_fract_y
 _atom_site_fract_z
 _atom_site_occupancy
  Cs  Cs0  1  0.60520300  0.75000000  0.73536600  1
  Cs  Cs1  1  0.10520300  0.25000000  0.76463400  1
  Cs  Cs2  1  0.39479700  0.25000000  0.26463400  1
  Cs  Cs3  1  0.89479700  0.75000000  0.23536600  1
  Pd  Pd4  1  0.71787800  0.41535500  0.04974100  1
  Pd  Pd5  1  0.21787800  0.58464500  0.45025900  1
  Pd  Pd6  1  0.28212200  0.91535500  0.95025900  1
  Pd  Pd7  1  0.78212200  0.08464500  0.54974100  1
  Pd  Pd8  1  0.28212200  0.58464500  0.95025900  1
  Pd  Pd9  1  0.78212200  0.41535500  0.54974100  1
  Pd  Pd10  1  0.71787800  0.08464500  0.04974100  1
  Pd  Pd11  1  0.21787800  0.91535500  0.45025900  1
  Cl  Cl12  1  0.53146400  0.41848700  0.91999800  1
  Cl  Cl13  1  0.03146400  0.58151300  0.58000200  1
  Cl  Cl14  1  0.46853600  0.91848700  0.08000200  1
  Cl  Cl15  1  0.96853600  0.08151300  0.41999800  1
  Cl  Cl16  1  0.46853600  0.58151300  0.08000200  1
  Cl  Cl17  1  0.96853600  0.41848700  0.41999800  1
  Cl  Cl18  1  0.53146400  0.08151300  0.91999800  1
  Cl  Cl19  1  0.03146400  0.91848700  0.58000200  1
  Cl  Cl20  1  0.88388300  0.42694900  0.17859200  1
  Cl  Cl21  1  0.38388300  0.57305100  0.32140800  1
  Cl  Cl22  1  0.11611700  0.92694900  0.82140800  1
  Cl  Cl23  1  0.61611700  0.07305100  0.67859200  1
  Cl  Cl24  1  0.04315800  0.75000000  0.98474800  1
  Cl  Cl25  1  0.54315800  0.25000000  0.51525200  1
  Cl  Cl26  1  0.95684200  0.25000000  0.01525200  1
  Cl  Cl27  1  0.45684200  0.75000000  0.48474800  1
  Cl  Cl28  1  0.38388300  0.92694900  0.32140800  1
  Cl  Cl29  1  0.88388300  0.07305100  0.17859200  1
  Cl  Cl30  1  0.61611700  0.42694900  0.67859200  1
  Cl  Cl31  1  0.11611700  0.57305100  0.82140800  1
