# generated using pymatgen
data_H2CN2
_symmetry_space_group_name_H-M   'P 1'
_cell_length_a   12.60482200
_cell_length_b   3.91292600
_cell_length_c   9.12784526
_cell_angle_alpha   88.62632192
_cell_angle_beta   90.00000000
_cell_angle_gamma   90.00000000
_symmetry_Int_Tables_number   1
_chemical_formula_structural   H2CN2
_chemical_formula_sum   'H16 C8 N16'
_cell_volume   450.07178795
_cell_formula_units_Z   8
loop_
 _symmetry_equiv_pos_site_id
 _symmetry_equiv_pos_as_xyz
  1  'x, y, z'
loop_
 _atom_site_type_symbol
 _atom_site_label
 _atom_site_symmetry_multiplicity
 _atom_site_fract_x
 _atom_site_fract_y
 _atom_site_fract_z
 _atom_site_occupancy
  H  H0  1  0.68516100  0.14447200  0.36672600  1
  H  H1  1  0.18516100  0.85552800  0.13327400  1
  H  H2  1  0.31483900  0.85552800  0.63327400  1
  H  H3  1  0.81483900  0.14447200  0.86672600  1
  H  H4  1  0.44869400  0.83370500  0.63937900  1
  H  H5  1  0.05130600  0.83370500  0.13937900  1
  H  H6  1  0.55130600  0.16629500  0.36062100  1
  H  H7  1  0.88954800  0.85214100  0.96262300  1
  H  H8  1  0.61576600  0.84585100  0.27415500  1
  H  H9  1  0.11576600  0.15414900  0.22584500  1
  H  H10  1  0.38423400  0.15414900  0.72584500  1
  H  H11  1  0.94869400  0.16629500  0.86062100  1
  H  H12  1  0.61045200  0.85214100  0.46262300  1
  H  H13  1  0.38954800  0.14785900  0.53737700  1
  H  H14  1  0.11045200  0.14785900  0.03737700  1
  H  H15  1  0.88423400  0.84585100  0.77415500  1
  C  C16  1  0.87282900  0.50733200  0.24889300  1
  C  C17  1  0.37282900  0.49266800  0.25110700  1
  C  C18  1  0.12717100  0.49266800  0.75110700  1
  C  C19  1  0.85850900  0.49851800  0.49925400  1
  C  C20  1  0.62717100  0.50733200  0.74889300  1
  C  C21  1  0.14149100  0.50148200  0.50074600  1
  C  C22  1  0.64149100  0.49851800  0.99925400  1
  C  C23  1  0.35850900  0.50148200  0.00074600  1
  N  N24  1  0.88418000  0.00242200  0.86648600  1
  N  N25  1  0.11582000  0.99757800  0.13351400  1
  N  N26  1  0.38418000  0.99757800  0.63351400  1
  N  N27  1  0.61582000  0.00242200  0.36648600  1
  N  N28  1  0.90822800  0.58687000  0.13302100  1
  N  N29  1  0.40822800  0.41313000  0.36697900  1
  N  N30  1  0.09177200  0.41313000  0.86697900  1
  N  N31  1  0.59177200  0.58687000  0.63302100  1
  N  N32  1  0.82790200  0.40209000  0.36991200  1
  N  N33  1  0.32790200  0.59791000  0.13008800  1
  N  N34  1  0.17209800  0.59791000  0.63008800  1
  N  N35  1  0.67209800  0.40209000  0.86991200  1
  N  N36  1  0.87857100  0.56816300  0.62102200  1
  N  N37  1  0.37857100  0.43183700  0.87897800  1
  N  N38  1  0.12142900  0.43183700  0.37897800  1
  N  N39  1  0.62142900  0.56816300  0.12102200  1
