# generated using pymatgen
data_PdSCl
_symmetry_space_group_name_H-M   'P 1'
_cell_length_a   12.68351800
_cell_length_b   8.29800700
_cell_length_c   9.71543727
_cell_angle_alpha   68.42120247
_cell_angle_beta   90.00000000
_cell_angle_gamma   90.00000000
_symmetry_Int_Tables_number   1
_chemical_formula_structural   PdSCl
_chemical_formula_sum   'Pd12 S12 Cl12'
_cell_volume   950.86318560
_cell_formula_units_Z   12
loop_
 _symmetry_equiv_pos_site_id
 _symmetry_equiv_pos_as_xyz
  1  'x, y, z'
loop_
 _atom_site_type_symbol
 _atom_site_label
 _atom_site_symmetry_multiplicity
 _atom_site_fract_x
 _atom_site_fract_y
 _atom_site_fract_z
 _atom_site_occupancy
  Pd  Pd0  1  0.36559500  0.10273400  0.89722900  1
  Pd  Pd1  1  0.86559500  0.89726600  0.10277100  1
  Pd  Pd2  1  0.63440500  0.89726600  0.10277100  1
  Pd  Pd3  1  0.13440500  0.10273400  0.89722900  1
  Pd  Pd4  1  0.36598400  0.39916100  0.56046400  1
  Pd  Pd5  1  0.86598400  0.60083900  0.43953600  1
  Pd  Pd6  1  0.63401600  0.60083900  0.43953600  1
  Pd  Pd7  1  0.13401600  0.39916100  0.56046400  1
  Pd  Pd8  1  0.25000000  0.86557200  0.79036600  1
  Pd  Pd9  1  0.75000000  0.13442800  0.20963400  1
  Pd  Pd10  1  0.25000000  0.16249900  0.45308300  1
  Pd  Pd11  1  0.75000000  0.83750100  0.54691700  1
  S  S12  1  0.12771500  0.97301100  0.60303600  1
  S  S13  1  0.54310500  0.85492400  0.31886700  1
  S  S14  1  0.04310500  0.14507600  0.68113300  1
  S  S15  1  0.62771500  0.02698900  0.39696400  1
  S  S16  1  0.45689500  0.14507600  0.68113300  1
  S  S17  1  0.37228500  0.97301100  0.60303600  1
  S  S18  1  0.87228500  0.02698900  0.39696400  1
  S  S19  1  0.33412900  0.39712300  0.79523200  1
  S  S20  1  0.83412900  0.60287700  0.20476800  1
  S  S21  1  0.66587100  0.60287700  0.20476800  1
  S  S22  1  0.16587100  0.39712300  0.79523200  1
  S  S23  1  0.95689500  0.85492400  0.31886700  1
  Cl  Cl24  1  0.38958500  0.36017300  0.32817700  1
  Cl  Cl25  1  0.11041500  0.36017300  0.32817700  1
  Cl  Cl26  1  0.61041500  0.63982700  0.67182300  1
  Cl  Cl27  1  0.25000000  0.64593700  0.45690200  1
  Cl  Cl28  1  0.75000000  0.35406300  0.54309800  1
  Cl  Cl29  1  0.88927000  0.20672200  0.02798400  1
  Cl  Cl30  1  0.75000000  0.91960300  0.89905700  1
  Cl  Cl31  1  0.11073000  0.79327800  0.97201600  1
  Cl  Cl32  1  0.61073000  0.20672200  0.02798400  1
  Cl  Cl33  1  0.25000000  0.08039700  0.10094300  1
  Cl  Cl34  1  0.88958500  0.63982700  0.67182300  1
  Cl  Cl35  1  0.38927000  0.79327800  0.97201600  1
