# generated using pymatgen
data_RbNb4Cl11
_symmetry_space_group_name_H-M   'P 1'
_cell_length_a   6.99721800
_cell_length_b   7.03304600
_cell_length_c   16.30124200
_cell_angle_alpha   90.00000000
_cell_angle_beta   90.00000000
_cell_angle_gamma   90.00000000
_symmetry_Int_Tables_number   1
_chemical_formula_structural   RbNb4Cl11
_chemical_formula_sum   'Rb2 Nb8 Cl22'
_cell_volume   802.21274488
_cell_formula_units_Z   2
loop_
 _symmetry_equiv_pos_site_id
 _symmetry_equiv_pos_as_xyz
  1  'x, y, z'
loop_
 _atom_site_type_symbol
 _atom_site_label
 _atom_site_symmetry_multiplicity
 _atom_site_fract_x
 _atom_site_fract_y
 _atom_site_fract_z
 _atom_site_occupancy
  Rb  Rb0  1  0.98610500  0.50000000  0.75000000  1
  Rb  Rb1  1  0.01389500  0.50000000  0.25000000  1
  Nb  Nb2  1  0.50000000  0.78569900  0.00000000  1
  Nb  Nb3  1  0.50000000  0.21430100  0.50000000  1
  Nb  Nb4  1  0.50000000  0.21430100  0.00000000  1
  Nb  Nb5  1  0.50000000  0.78569900  0.50000000  1
  Nb  Nb6  1  0.38253300  0.00000000  0.85868300  1
  Nb  Nb7  1  0.38253300  0.00000000  0.64131700  1
  Nb  Nb8  1  0.61746700  0.00000000  0.14131700  1
  Nb  Nb9  1  0.61746700  0.00000000  0.35868300  1
  Cl  Cl10  1  0.51748700  0.76912500  0.75000000  1
  Cl  Cl11  1  0.51748700  0.23087500  0.75000000  1
  Cl  Cl12  1  0.48251300  0.76912500  0.25000000  1
  Cl  Cl13  1  0.48251300  0.23087500  0.25000000  1
  Cl  Cl14  1  0.10417100  0.00000000  0.75000000  1
  Cl  Cl15  1  0.89582900  0.00000000  0.25000000  1
  Cl  Cl16  1  0.36411200  0.50000000  0.08246400  1
  Cl  Cl17  1  0.36411200  0.50000000  0.41753600  1
  Cl  Cl18  1  0.63588800  0.50000000  0.91753600  1
  Cl  Cl19  1  0.63588800  0.50000000  0.58246400  1
  Cl  Cl20  1  0.29210200  0.00000000  0.41517600  1
  Cl  Cl21  1  0.29210200  0.00000000  0.08482400  1
  Cl  Cl22  1  0.70789800  0.00000000  0.58482400  1
  Cl  Cl23  1  0.70789800  0.00000000  0.91517600  1
  Cl  Cl24  1  0.80740500  0.74900700  0.42113400  1
  Cl  Cl25  1  0.80740500  0.25099300  0.07886600  1
  Cl  Cl26  1  0.19259500  0.74900700  0.57886600  1
  Cl  Cl27  1  0.19259500  0.25099300  0.92113400  1
  Cl  Cl28  1  0.19259500  0.25099300  0.57886600  1
  Cl  Cl29  1  0.19259500  0.74900700  0.92113400  1
  Cl  Cl30  1  0.80740500  0.25099300  0.42113400  1
  Cl  Cl31  1  0.80740500  0.74900700  0.07886600  1
