# generated using pymatgen
data_CaSn2F6
_symmetry_space_group_name_H-M   'P 1'
_cell_length_a   4.49578000
_cell_length_b   7.36290658
_cell_length_c   9.97323499
_cell_angle_alpha   98.73279153
_cell_angle_beta   101.30301163
_cell_angle_gamma   92.60599462
_symmetry_Int_Tables_number   1
_chemical_formula_structural   CaSn2F6
_chemical_formula_sum   'Ca2 Sn4 F12'
_cell_volume   319.01279155
_cell_formula_units_Z   2
loop_
 _symmetry_equiv_pos_site_id
 _symmetry_equiv_pos_as_xyz
  1  'x, y, z'
loop_
 _atom_site_type_symbol
 _atom_site_label
 _atom_site_symmetry_multiplicity
 _atom_site_fract_x
 _atom_site_fract_y
 _atom_site_fract_z
 _atom_site_occupancy
  Ca  Ca0  1  0.40062600  0.25414200  0.05344900  1
  Ca  Ca1  1  0.59937400  0.74585800  0.94655100  1
  Sn  Sn2  1  0.36151700  0.78879000  0.26811300  1
  Sn  Sn3  1  0.63848300  0.21121000  0.73188700  1
  Sn  Sn4  1  0.98022700  0.72566100  0.63358700  1
  Sn  Sn5  1  0.01977300  0.27433900  0.36641300  1
  F  F6  1  0.90826200  0.43870800  0.61226100  1
  F  F7  1  0.09173800  0.56129200  0.38773900  1
  F  F8  1  0.05472900  0.73493500  0.85498100  1
  F  F9  1  0.94527100  0.26506500  0.14501900  1
  F  F10  1  0.89711200  0.78951000  0.17616100  1
  F  F11  1  0.10288800  0.21049000  0.82383900  1
  F  F12  1  0.61296000  0.04268600  0.89198500  1
  F  F13  1  0.38704000  0.95731400  0.10801500  1
  F  F14  1  0.53053500  0.30895800  0.30536400  1
  F  F15  1  0.46946500  0.69104200  0.69463600  1
  F  F16  1  0.63707300  0.42480600  0.89851000  1
  F  F17  1  0.36292700  0.57519400  0.10149000  1
