# generated using pymatgen
data_CsMgBO3
_symmetry_space_group_name_H-M   'P 1'
_cell_length_a   4.94028100
_cell_length_b   16.91670800
_cell_length_c   20.50868208
_cell_angle_alpha   65.67962065
_cell_angle_beta   90.00000000
_cell_angle_gamma   90.00000000
_symmetry_Int_Tables_number   1
_chemical_formula_structural   CsMgBO3
_chemical_formula_sum   'Cs16 Mg16 B16 O48'
_cell_volume   1561.87424347
_cell_formula_units_Z   16
loop_
 _symmetry_equiv_pos_site_id
 _symmetry_equiv_pos_as_xyz
  1  'x, y, z'
loop_
 _atom_site_type_symbol
 _atom_site_label
 _atom_site_symmetry_multiplicity
 _atom_site_fract_x
 _atom_site_fract_y
 _atom_site_fract_z
 _atom_site_occupancy
  Cs  Cs0  1  0.26333000  0.85837700  0.27166600  1
  Cs  Cs1  1  0.76333000  0.64162300  0.72833400  1
  Cs  Cs2  1  0.73667000  0.14162300  0.72833400  1
  Cs  Cs3  1  0.23667000  0.35837700  0.27166600  1
  Cs  Cs4  1  0.27729000  0.59962100  0.44204400  1
  Cs  Cs5  1  0.77729000  0.90037900  0.55795600  1
  Cs  Cs6  1  0.72271000  0.40037900  0.55795600  1
  Cs  Cs7  1  0.22271000  0.09962100  0.44204400  1
  Cs  Cs8  1  0.27457800  0.04152300  0.05771200  1
  Cs  Cs9  1  0.77457800  0.45847700  0.94228800  1
  Cs  Cs10  1  0.72542200  0.95847700  0.94228800  1
  Cs  Cs11  1  0.22542200  0.54152300  0.05771200  1
  Cs  Cs12  1  0.24529900  0.62990100  0.22812400  1
  Cs  Cs13  1  0.74529900  0.87009900  0.77187600  1
  Cs  Cs14  1  0.75470100  0.37009900  0.77187600  1
  Cs  Cs15  1  0.25470100  0.12990100  0.22812400  1
  Mg  Mg16  1  0.72699900  0.71918200  0.05858000  1
  Mg  Mg17  1  0.22699900  0.78081800  0.94142000  1
  Mg  Mg18  1  0.27300100  0.28081800  0.94142000  1
  Mg  Mg19  1  0.77300100  0.21918200  0.05858000  1
  Mg  Mg20  1  0.26565600  0.50927700  0.65534900  1
  Mg  Mg21  1  0.76565600  0.99072300  0.34465100  1
  Mg  Mg22  1  0.73434400  0.49072300  0.34465100  1
  Mg  Mg23  1  0.23434400  0.00927700  0.65534900  1
  Mg  Mg24  1  0.78078300  0.77806400  0.44125200  1
  Mg  Mg25  1  0.28078300  0.72193600  0.55874800  1
  Mg  Mg26  1  0.21921700  0.22193600  0.55874800  1
  Mg  Mg27  1  0.71921700  0.27806400  0.44125200  1
  Mg  Mg28  1  0.74304400  0.83489500  0.15520600  1
  Mg  Mg29  1  0.24304400  0.66510500  0.84479400  1
  Mg  Mg30  1  0.25695600  0.16510500  0.84479400  1
  Mg  Mg31  1  0.75695600  0.33489500  0.15520600  1
  B  B32  1  0.26724000  0.48512400  0.82333100  1
  B  B33  1  0.76724000  0.01487600  0.17666900  1
  B  B34  1  0.73276000  0.51487600  0.17666900  1
  B  B35  1  0.23276000  0.98512400  0.82333100  1
  B  B36  1  0.78259800  0.61530700  0.58038000  1
  B  B37  1  0.28259800  0.88469300  0.41962000  1
  B  B38  1  0.21740200  0.38469300  0.41962000  1
  B  B39  1  0.71740200  0.11530700  0.58038000  1
  B  B40  1  0.22469500  0.30791800  0.67694400  1
  B  B41  1  0.72469500  0.19208200  0.32305600  1
  B  B42  1  0.77530500  0.69208200  0.32305600  1
  B  B43  1  0.27530500  0.80791800  0.67694400  1
  B  B44  1  0.22544400  0.80422300  0.08055400  1
  B  B45  1  0.72544400  0.69577700  0.91944600  1
  B  B46  1  0.77455600  0.19577700  0.91944600  1
  B  B47  1  0.27455600  0.30422300  0.08055400  1
  O  O48  1  0.26422200  0.39857300  0.87269900  1
  O  O49  1  0.76422200  0.10142700  0.12730100  1
  O  O50  1  0.73577800  0.60142700  0.12730100  1
  O  O51  1  0.23577800  0.89857300  0.87269900  1
  O  O52  1  0.24289300  0.50648600  0.75083600  1
  O  O53  1  0.74289300  0.99351400  0.24916400  1
  O  O54  1  0.75710700  0.49351400  0.24916400  1
  O  O55  1  0.25710700  0.00648600  0.75083600  1
  O  O56  1  0.77064000  0.73077900  0.37132700  1
  O  O57  1  0.27064000  0.76922100  0.62867300  1
  O  O58  1  0.22936000  0.26922100  0.62867300  1
  O  O59  1  0.72936000  0.23077900  0.37132700  1
  O  O60  1  0.77072100  0.74191700  0.25008700  1
  O  O61  1  0.27072100  0.75808300  0.74991300  1
  O  O62  1  0.22927900  0.25808300  0.74991300  1
  O  O63  1  0.72927900  0.24191700  0.25008700  1
  O  O64  1  0.79505600  0.95095400  0.15085400  1
  O  O65  1  0.29505600  0.54904600  0.84914600  1
  O  O66  1  0.20494400  0.04904600  0.84914600  1
  O  O67  1  0.70494400  0.45095400  0.15085400  1
  O  O68  1  0.21217100  0.39818500  0.64960900  1
  O  O69  1  0.71217100  0.10181500  0.35039100  1
  O  O70  1  0.78782900  0.60181500  0.35039100  1
  O  O71  1  0.28782900  0.89818500  0.64960900  1
  O  O72  1  0.56596400  0.88639300  0.41649400  1
  O  O73  1  0.06596400  0.61360700  0.58350600  1
  O  O74  1  0.43403600  0.11360700  0.58350600  1
  O  O75  1  0.93403600  0.38639300  0.41649400  1
  O  O76  1  0.63696900  0.54257600  0.61851900  1
  O  O77  1  0.13696900  0.95742400  0.38148100  1
  O  O78  1  0.36303100  0.45742400  0.38148100  1
  O  O79  1  0.86303100  0.04257600  0.61851900  1
  O  O80  1  0.37068800  0.83835400  0.11913000  1
  O  O81  1  0.87068800  0.66164600  0.88087000  1
  O  O82  1  0.62931200  0.16164600  0.88087000  1
  O  O83  1  0.12931200  0.33835400  0.11913000  1
  O  O84  1  0.94208400  0.80285900  0.08332400  1
  O  O85  1  0.44208400  0.69714100  0.91667600  1
  O  O86  1  0.05791600  0.19714100  0.91667600  1
  O  O87  1  0.55791600  0.30285900  0.08332400  1
  O  O88  1  0.35129500  0.76688900  0.03835100  1
  O  O89  1  0.85129500  0.73311100  0.96164900  1
  O  O90  1  0.64870500  0.23311100  0.96164900  1
  O  O91  1  0.14870500  0.26688900  0.03835100  1
  O  O92  1  0.15704900  0.80504400  0.46167500  1
  O  O93  1  0.65704900  0.69495600  0.53832500  1
  O  O94  1  0.84295100  0.19495600  0.53832500  1
  O  O95  1  0.34295100  0.30504400  0.46167500  1
