# generated using pymatgen
data_Mg3(HO2)2
_symmetry_space_group_name_H-M   'P 1'
_cell_length_a   3.07281315
_cell_length_b   3.07281315
_cell_length_c   19.77834700
_cell_angle_alpha   90.00000000
_cell_angle_beta   90.00000000
_cell_angle_gamma   119.99998163
_symmetry_Int_Tables_number   1
_chemical_formula_structural   Mg3(HO2)2
_chemical_formula_sum   'Mg6 H4 O8'
_cell_volume   161.73090200
_cell_formula_units_Z   2
loop_
 _symmetry_equiv_pos_site_id
 _symmetry_equiv_pos_as_xyz
  1  'x, y, z'
loop_
 _atom_site_type_symbol
 _atom_site_label
 _atom_site_symmetry_multiplicity
 _atom_site_fract_x
 _atom_site_fract_y
 _atom_site_fract_z
 _atom_site_occupancy
  Mg  Mg0  1  0.66666700  0.33333300  0.24986900  1
  Mg  Mg1  1  0.33333300  0.66666700  0.37367300  1
  Mg  Mg2  1  0.66666700  0.33333300  0.62632700  1
  Mg  Mg3  1  0.33333300  0.66666700  0.75013100  1
  Mg  Mg4  1  0.00000000  0.00000000  0.87408700  1
  Mg  Mg5  1  0.00000000  0.00000000  0.12591300  1
  H  H6  1  0.33333300  0.66666700  0.97678200  1
  H  H7  1  0.66666700  0.33333300  0.02321800  1
  H  H8  1  0.66666700  0.33333300  0.47630400  1
  H  H9  1  0.33333300  0.66666700  0.52369600  1
  O  O10  1  0.33333300  0.66666700  0.92780100  1
  O  O11  1  0.00000000  0.00000000  0.68835600  1
  O  O12  1  0.66666700  0.33333300  0.42735100  1
  O  O13  1  0.33333300  0.66666700  0.57264900  1
  O  O14  1  0.66666700  0.33333300  0.07219900  1
  O  O15  1  0.33333300  0.66666700  0.18807400  1
  O  O16  1  0.00000000  0.00000000  0.31164400  1
  O  O17  1  0.66666700  0.33333300  0.81192600  1
