# generated using pymatgen
data_HgAsO3
_symmetry_space_group_name_H-M   'P 1'
_cell_length_a   4.95871958
_cell_length_b   4.95871958
_cell_length_c   7.77621100
_cell_angle_alpha   90.00000000
_cell_angle_beta   90.00000000
_cell_angle_gamma   119.99999434
_symmetry_Int_Tables_number   1
_chemical_formula_structural   HgAsO3
_chemical_formula_sum   'Hg2 As2 O6'
_cell_volume   165.59140476
_cell_formula_units_Z   2
loop_
 _symmetry_equiv_pos_site_id
 _symmetry_equiv_pos_as_xyz
  1  'x, y, z'
loop_
 _atom_site_type_symbol
 _atom_site_label
 _atom_site_symmetry_multiplicity
 _atom_site_fract_x
 _atom_site_fract_y
 _atom_site_fract_z
 _atom_site_occupancy
  Hg  Hg0  1  0.00000000  0.00000000  0.83251000  1
  Hg  Hg1  1  0.00000000  0.00000000  0.16749000  1
  As  As2  1  0.33333300  0.66666700  0.50000000  1
  As  As3  1  0.66666700  0.33333300  0.50000000  1
  O  O4  1  0.38022800  0.00000000  0.63476000  1
  O  O5  1  0.00000000  0.38022800  0.63476000  1
  O  O6  1  0.61977200  0.61977200  0.63476000  1
  O  O7  1  0.00000000  0.61977200  0.36524000  1
  O  O8  1  0.38022800  0.38022800  0.36524000  1
  O  O9  1  0.61977200  0.00000000  0.36524000  1
