# generated using pymatgen
data_B5H11
_symmetry_space_group_name_H-M   'P 1'
_cell_length_a   8.87340100
_cell_length_b   7.00706000
_cell_length_c   12.21103204
_cell_angle_alpha   59.92828852
_cell_angle_beta   90.00000000
_cell_angle_gamma   90.00000000
_symmetry_Int_Tables_number   1
_chemical_formula_structural   B5H11
_chemical_formula_sum   'B20 H44'
_cell_volume   657.04432213
_cell_formula_units_Z   4
loop_
 _symmetry_equiv_pos_site_id
 _symmetry_equiv_pos_as_xyz
  1  'x, y, z'
loop_
 _atom_site_type_symbol
 _atom_site_label
 _atom_site_symmetry_multiplicity
 _atom_site_fract_x
 _atom_site_fract_y
 _atom_site_fract_z
 _atom_site_occupancy
  B  B0  1  0.28959900  0.48869800  0.12496300  1
  B  B1  1  0.78959900  0.51130200  0.37503700  1
  B  B2  1  0.71040100  0.51130200  0.87503700  1
  B  B3  1  0.21040100  0.48869800  0.62496300  1
  B  B4  1  0.33877900  0.31699100  0.29013300  1
  B  B5  1  0.83877900  0.68300900  0.20986700  1
  B  B6  1  0.66122100  0.68300900  0.70986700  1
  B  B7  1  0.16122100  0.31699100  0.79013300  1
  B  B8  1  0.45001100  0.29156000  0.18080000  1
  B  B9  1  0.95001100  0.70844000  0.31920000  1
  B  B10  1  0.54998900  0.70844000  0.81920000  1
  B  B11  1  0.04998900  0.29156000  0.68080000  1
  B  B12  1  0.39561900  0.05406200  0.31621400  1
  B  B13  1  0.89561900  0.94593800  0.18378600  1
  B  B14  1  0.60438100  0.94593800  0.68378600  1
  B  B15  1  0.10438100  0.05406200  0.81621400  1
  B  B16  1  0.39758800  0.03358400  0.18000200  1
  B  B17  1  0.89758800  0.96641600  0.31999800  1
  B  B18  1  0.60241200  0.96641600  0.81999800  1
  B  B19  1  0.10241200  0.03358400  0.68000200  1
  H  H20  1  0.37135600  0.36281300  0.08110000  1
  H  H21  1  0.87135600  0.63718700  0.41890000  1
  H  H22  1  0.62864400  0.63718700  0.91890000  1
  H  H23  1  0.12864400  0.36281300  0.58110000  1
  H  H24  1  0.21332800  0.41220800  0.23808700  1
  H  H25  1  0.71332800  0.58779200  0.26191300  1
  H  H26  1  0.78667200  0.58779200  0.76191300  1
  H  H27  1  0.28667200  0.41220800  0.73808700  1
  H  H28  1  0.27477200  0.11981600  0.35823500  1
  H  H29  1  0.77477200  0.88018400  0.14176500  1
  H  H30  1  0.72522800  0.88018400  0.64176500  1
  H  H31  1  0.22522800  0.11981600  0.85823500  1
  H  H32  1  0.31843800  0.92219900  0.29096700  1
  H  H33  1  0.81843800  0.07780100  0.20903300  1
  H  H34  1  0.68156200  0.07780100  0.70903300  1
  H  H35  1  0.18202200  0.45934200  0.07453400  1
  H  H36  1  0.18156200  0.92219900  0.79096700  1
  H  H37  1  0.82654300  0.32438600  0.41286300  1
  H  H38  1  0.67345700  0.32438600  0.91286300  1
  H  H39  1  0.17345700  0.67561400  0.58713700  1
  H  H40  1  0.00509200  0.91048900  0.68546900  1
  H  H41  1  0.50509200  0.08951100  0.81453100  1
  H  H42  1  0.99490800  0.08951100  0.31453100  1
  H  H43  1  0.49490800  0.91048900  0.18546900  1
  H  H44  1  0.20444300  0.06952500  0.60778100  1
  H  H45  1  0.70444300  0.93047500  0.89221900  1
  H  H46  1  0.79555700  0.93047500  0.39221900  1
  H  H47  1  0.29555700  0.06952500  0.10778100  1
  H  H48  1  0.01988400  0.95438700  0.90219300  1
  H  H49  1  0.51988400  0.04561300  0.59780700  1
  H  H50  1  0.98011600  0.04561300  0.09780700  1
  H  H51  1  0.48011600  0.95438700  0.40219300  1
  H  H52  1  0.92328000  0.35768100  0.66425200  1
  H  H53  1  0.42328000  0.64231900  0.83574800  1
  H  H54  1  0.07672000  0.64231900  0.33574800  1
  H  H55  1  0.57672000  0.35768100  0.16425200  1
  H  H56  1  0.11692600  0.37816700  0.85933600  1
  H  H57  1  0.61692600  0.62183300  0.64066400  1
  H  H58  1  0.88307400  0.62183300  0.14066400  1
  H  H59  1  0.38307400  0.37816700  0.35933600  1
  H  H60  1  0.31797800  0.45934200  0.57453400  1
  H  H61  1  0.81797800  0.54065800  0.92546600  1
  H  H62  1  0.68202200  0.54065800  0.42546600  1
  H  H63  1  0.32654300  0.67561400  0.08713700  1
