# generated using pymatgen
data_Ti2Cu3
_symmetry_space_group_name_H-M   'P 1'
_cell_length_a   7.37862526
_cell_length_b   7.37862526
_cell_length_c   7.37862526
_cell_angle_alpha   155.46165955
_cell_angle_beta   155.46165955
_cell_angle_gamma   34.97850825
_symmetry_Int_Tables_number   1
_chemical_formula_structural   Ti2Cu3
_chemical_formula_sum   'Ti2 Cu3'
_cell_volume   69.20991341
_cell_formula_units_Z   1
loop_
 _symmetry_equiv_pos_site_id
 _symmetry_equiv_pos_as_xyz
  1  'x, y, z'
loop_
 _atom_site_type_symbol
 _atom_site_label
 _atom_site_symmetry_multiplicity
 _atom_site_fract_x
 _atom_site_fract_y
 _atom_site_fract_z
 _atom_site_occupancy
  Ti  Ti0  1  0.60486900  0.60486900  0.00000000  1
  Ti  Ti1  1  0.39513100  0.39513100  0.00000000  1
  Cu  Cu2  1  0.00000000  0.00000000  0.00000000  1
  Cu  Cu3  1  0.79500800  0.79500800  0.00000000  1
  Cu  Cu4  1  0.20499200  0.20499200  0.00000000  1
