# generated using pymatgen
data_SrCuSn2
_symmetry_space_group_name_H-M   'P 1'
_cell_length_a   10.06565224
_cell_length_b   10.06565224
_cell_length_c   4.57739400
_cell_angle_alpha   90.00000000
_cell_angle_beta   90.00000000
_cell_angle_gamma   153.36433859
_symmetry_Int_Tables_number   1
_chemical_formula_structural   SrCuSn2
_chemical_formula_sum   'Sr2 Cu2 Sn4'
_cell_volume   207.91504841
_cell_formula_units_Z   2
loop_
 _symmetry_equiv_pos_site_id
 _symmetry_equiv_pos_as_xyz
  1  'x, y, z'
loop_
 _atom_site_type_symbol
 _atom_site_label
 _atom_site_symmetry_multiplicity
 _atom_site_fract_x
 _atom_site_fract_y
 _atom_site_fract_z
 _atom_site_occupancy
  Sr  Sr0  1  0.60808900  0.39191100  0.75000000  1
  Sr  Sr1  1  0.39191100  0.60808900  0.25000000  1
  Cu  Cu2  1  0.82484100  0.17515900  0.75000000  1
  Cu  Cu3  1  0.17515900  0.82484100  0.25000000  1
  Sn  Sn4  1  0.75034600  0.24965400  0.25000000  1
  Sn  Sn5  1  0.04325500  0.95674500  0.25000000  1
  Sn  Sn6  1  0.24965400  0.75034600  0.75000000  1
  Sn  Sn7  1  0.95674500  0.04325500  0.75000000  1
