# generated using pymatgen
data_Ga3Pt5
_symmetry_space_group_name_H-M   'P 1'
_cell_length_a   5.55059286
_cell_length_b   5.55059286
_cell_length_c   3.99486000
_cell_angle_alpha   90.00000000
_cell_angle_beta   90.00000000
_cell_angle_gamma   94.39116607
_symmetry_Int_Tables_number   1
_chemical_formula_structural   Ga3Pt5
_chemical_formula_sum   'Ga3 Pt5'
_cell_volume   122.71667865
_cell_formula_units_Z   1
loop_
 _symmetry_equiv_pos_site_id
 _symmetry_equiv_pos_as_xyz
  1  'x, y, z'
loop_
 _atom_site_type_symbol
 _atom_site_label
 _atom_site_symmetry_multiplicity
 _atom_site_fract_x
 _atom_site_fract_y
 _atom_site_fract_z
 _atom_site_occupancy
  Ga  Ga0  1  0.00000000  0.00000000  0.00000000  1
  Ga  Ga1  1  0.71454900  0.28545100  0.50000000  1
  Ga  Ga2  1  0.28545100  0.71454900  0.50000000  1
  Pt  Pt3  1  0.50000000  0.50000000  0.00000000  1
  Pt  Pt4  1  0.00000000  0.50000000  0.00000000  1
  Pt  Pt5  1  0.50000000  0.00000000  0.00000000  1
  Pt  Pt6  1  0.20870000  0.20870000  0.50000000  1
  Pt  Pt7  1  0.79130000  0.79130000  0.50000000  1
