# generated using pymatgen
data_K8N3O
_symmetry_space_group_name_H-M   'P 1'
_cell_length_a   6.73811100
_cell_length_b   6.73811100
_cell_length_c   6.73811100
_cell_angle_alpha   90.00000000
_cell_angle_beta   90.00000000
_cell_angle_gamma   90.00000000
_symmetry_Int_Tables_number   1
_chemical_formula_structural   K8N3O
_chemical_formula_sum   'K8 N3 O1'
_cell_volume   305.92465794
_cell_formula_units_Z   1
loop_
 _symmetry_equiv_pos_site_id
 _symmetry_equiv_pos_as_xyz
  1  'x, y, z'
loop_
 _atom_site_type_symbol
 _atom_site_label
 _atom_site_symmetry_multiplicity
 _atom_site_fract_x
 _atom_site_fract_y
 _atom_site_fract_z
 _atom_site_occupancy
  K  K0  1  0.25677300  0.74322700  0.25677300  1
  K  K1  1  0.74322700  0.25677300  0.25677300  1
  K  K2  1  0.74322700  0.74322700  0.74322700  1
  K  K3  1  0.25677300  0.25677300  0.74322700  1
  K  K4  1  0.25677300  0.74322700  0.74322700  1
  K  K5  1  0.74322700  0.25677300  0.74322700  1
  K  K6  1  0.74322700  0.74322700  0.25677300  1
  K  K7  1  0.25677300  0.25677300  0.25677300  1
  N  N8  1  0.00000000  0.50000000  0.00000000  1
  N  N9  1  0.50000000  0.00000000  0.00000000  1
  N  N10  1  0.00000000  0.00000000  0.50000000  1
  O  O11  1  0.50000000  0.50000000  0.50000000  1
