# generated using pymatgen
data_KAl9O14
_symmetry_space_group_name_H-M   'P 1'
_cell_length_a   7.75653900
_cell_length_b   8.27819200
_cell_length_c   9.78991153
_cell_angle_alpha   58.26868926
_cell_angle_beta   90.00000000
_cell_angle_gamma   90.00000000
_symmetry_Int_Tables_number   1
_chemical_formula_structural   KAl9O14
_chemical_formula_sum   'K2 Al18 O28'
_cell_volume   534.64895980
_cell_formula_units_Z   2
loop_
 _symmetry_equiv_pos_site_id
 _symmetry_equiv_pos_as_xyz
  1  'x, y, z'
loop_
 _atom_site_type_symbol
 _atom_site_label
 _atom_site_symmetry_multiplicity
 _atom_site_fract_x
 _atom_site_fract_y
 _atom_site_fract_z
 _atom_site_occupancy
  K  K0  1  0.50000000  0.50000000  0.50000000  1
  K  K1  1  0.00000000  0.50000000  0.00000000  1
  Al  Al2  1  0.99783600  0.32589400  0.67131500  1
  Al  Al3  1  0.50216400  0.32589400  0.17131500  1
  Al  Al4  1  0.00216400  0.67410600  0.32868500  1
  Al  Al5  1  0.49783600  0.67410600  0.82868500  1
  Al  Al6  1  0.00000000  0.00000000  0.00000000  1
  Al  Al7  1  0.50000000  0.00000000  0.50000000  1
  Al  Al8  1  0.66557200  0.72917800  0.12161600  1
  Al  Al9  1  0.83442800  0.72917800  0.62161600  1
  Al  Al10  1  0.33442800  0.27082200  0.87838400  1
  Al  Al11  1  0.16557200  0.27082200  0.37838400  1
  Al  Al12  1  0.17738100  0.93426400  0.72154500  1
  Al  Al13  1  0.32261900  0.93426400  0.22154500  1
  Al  Al14  1  0.82261900  0.06573600  0.27845500  1
  Al  Al15  1  0.67738100  0.06573600  0.77845500  1
  Al  Al16  1  0.81078000  0.32373100  0.40707800  1
  Al  Al17  1  0.68922000  0.32373100  0.90707800  1
  Al  Al18  1  0.18922000  0.67626900  0.59292200  1
  Al  Al19  1  0.31078000  0.67626900  0.09292200  1
  O  O20  1  0.79453900  0.24541800  0.61429200  1
  O  O21  1  0.70546100  0.24541800  0.11429200  1
  O  O22  1  0.20546100  0.75458200  0.38570800  1
  O  O23  1  0.29453900  0.75458200  0.88570800  1
  O  O24  1  0.78646500  0.90680900  0.96159300  1
  O  O25  1  0.71353500  0.90680900  0.46159300  1
  O  O26  1  0.21353500  0.09319100  0.03840700  1
  O  O27  1  0.28646500  0.09319100  0.53840700  1
  O  O28  1  0.79272600  0.57918600  0.28986700  1
  O  O29  1  0.70727400  0.57918600  0.78986700  1
  O  O30  1  0.20727400  0.42081400  0.71013300  1
  O  O31  1  0.29272600  0.42081400  0.21013300  1
  O  O32  1  0.08314800  0.07235500  0.78872100  1
  O  O33  1  0.41685200  0.07235500  0.28872100  1
  O  O34  1  0.91685200  0.92764500  0.21127900  1
  O  O35  1  0.58314800  0.92764500  0.71127900  1
  O  O36  1  0.06343500  0.40461300  0.44902300  1
  O  O37  1  0.43656500  0.40461300  0.94902300  1
  O  O38  1  0.93656500  0.59538700  0.55097700  1
  O  O39  1  0.56343500  0.59538700  0.05097700  1
  O  O40  1  0.60233800  0.25412800  0.37402100  1
  O  O41  1  0.89766200  0.25412800  0.87402100  1
  O  O42  1  0.39766200  0.74587200  0.62597900  1
  O  O43  1  0.10233800  0.74587200  0.12597900  1
  O  O44  1  0.95829400  0.20650100  0.33191500  1
  O  O45  1  0.54170600  0.20650100  0.83191500  1
  O  O46  1  0.04170600  0.79349900  0.66808500  1
  O  O47  1  0.45829400  0.79349900  0.16808500  1
