# generated using pymatgen
data_Cd2(TeO3)3
_symmetry_space_group_name_H-M   'P 1'
_cell_length_a   7.42432600
_cell_length_b   9.51033900
_cell_length_c   13.46198721
_cell_angle_alpha   57.20565056
_cell_angle_beta   90.00000000
_cell_angle_gamma   90.00000000
_symmetry_Int_Tables_number   1
_chemical_formula_structural   Cd2(TeO3)3
_chemical_formula_sum   'Cd8 Te12 O36'
_cell_volume   799.02788389
_cell_formula_units_Z   4
loop_
 _symmetry_equiv_pos_site_id
 _symmetry_equiv_pos_as_xyz
  1  'x, y, z'
loop_
 _atom_site_type_symbol
 _atom_site_label
 _atom_site_symmetry_multiplicity
 _atom_site_fract_x
 _atom_site_fract_y
 _atom_site_fract_z
 _atom_site_occupancy
  Cd  Cd0  1  0.62400500  0.39840300  0.64747400  1
  Cd  Cd1  1  0.12400500  0.60159700  0.85252600  1
  Cd  Cd2  1  0.37599500  0.60159700  0.35252600  1
  Cd  Cd3  1  0.87599500  0.39840300  0.14747400  1
  Cd  Cd4  1  0.62516900  0.59537100  0.85278100  1
  Cd  Cd5  1  0.12516900  0.40462900  0.64721900  1
  Cd  Cd6  1  0.37483100  0.40462900  0.14721900  1
  Cd  Cd7  1  0.87483100  0.59537100  0.35278100  1
  Te  Te8  1  0.12617200  0.00202300  0.24997400  1
  Te  Te9  1  0.62617200  0.99797700  0.25002600  1
  Te  Te10  1  0.87382800  0.99797700  0.75002600  1
  Te  Te11  1  0.37382800  0.00202300  0.74997400  1
  Te  Te12  1  0.37891500  0.21214600  0.96008800  1
  Te  Te13  1  0.87891500  0.78785400  0.53991200  1
  Te  Te14  1  0.62108500  0.78785400  0.03991200  1
  Te  Te15  1  0.12108500  0.21214600  0.46008800  1
  Te  Te16  1  0.87616400  0.23758200  0.93872000  1
  Te  Te17  1  0.37616400  0.76241800  0.56128000  1
  Te  Te18  1  0.12383600  0.76241800  0.06128000  1
  Te  Te19  1  0.62383600  0.23758200  0.43872000  1
  O  O20  1  0.91820300  0.65199300  0.16148200  1
  O  O21  1  0.41820300  0.34800700  0.33851800  1
  O  O22  1  0.08179700  0.34800700  0.83851800  1
  O  O23  1  0.58179700  0.65199300  0.66148200  1
  O  O24  1  0.12034400  0.40771100  0.46402800  1
  O  O25  1  0.62034400  0.59228900  0.03597200  1
  O  O26  1  0.87965600  0.59228900  0.53597200  1
  O  O27  1  0.37965600  0.40771100  0.96402800  1
  O  O28  1  0.63169100  0.41113700  0.47024000  1
  O  O29  1  0.13169100  0.58886300  0.02976000  1
  O  O30  1  0.36830900  0.58886300  0.52976000  1
  O  O31  1  0.86830900  0.41113700  0.97024000  1
  O  O32  1  0.83923200  0.33195200  0.34296000  1
  O  O33  1  0.33923200  0.66804800  0.15704000  1
  O  O34  1  0.16076800  0.66804800  0.65704000  1
  O  O35  1  0.66076800  0.33195200  0.84296000  1
  O  O36  1  0.13055200  0.22339200  0.21692600  1
  O  O37  1  0.63055200  0.77660800  0.28307400  1
  O  O38  1  0.86944800  0.77660800  0.78307400  1
  O  O39  1  0.36944800  0.22339200  0.71692600  1
  O  O40  1  0.62382300  0.03588300  0.69253400  1
  O  O41  1  0.12382300  0.96411700  0.80746600  1
  O  O42  1  0.37617700  0.96411700  0.30746600  1
  O  O43  1  0.87617700  0.03588300  0.19253400  1
  O  O44  1  0.93510800  0.07780500  0.58076700  1
  O  O45  1  0.43510800  0.92219500  0.91923300  1
  O  O46  1  0.06489200  0.92219500  0.41923300  1
  O  O47  1  0.56489200  0.07780500  0.08076700  1
  O  O48  1  0.31182000  0.08557900  0.58165600  1
  O  O49  1  0.81182000  0.91442100  0.91834400  1
  O  O50  1  0.68818000  0.91442100  0.41834400  1
  O  O51  1  0.18818000  0.08557900  0.08165600  1
  O  O52  1  0.88081000  0.22010600  0.71393600  1
  O  O53  1  0.38081000  0.77989400  0.78606400  1
  O  O54  1  0.11919000  0.77989400  0.28606400  1
  O  O55  1  0.61919000  0.22010600  0.21393600  1
