# generated using pymatgen
data_KPSO2
_symmetry_space_group_name_H-M   'P 1'
_cell_length_a   8.19049400
_cell_length_b   11.34433300
_cell_length_c   13.86995600
_cell_angle_alpha   90.00000000
_cell_angle_beta   90.00000000
_cell_angle_gamma   90.00000000
_symmetry_Int_Tables_number   1
_chemical_formula_structural   KPSO2
_chemical_formula_sum   'K12 P12 S12 O24'
_cell_volume   1288.73655102
_cell_formula_units_Z   12
loop_
 _symmetry_equiv_pos_site_id
 _symmetry_equiv_pos_as_xyz
  1  'x, y, z'
loop_
 _atom_site_type_symbol
 _atom_site_label
 _atom_site_symmetry_multiplicity
 _atom_site_fract_x
 _atom_site_fract_y
 _atom_site_fract_z
 _atom_site_occupancy
  K  K0  1  0.32439700  0.91831300  0.17394700  1
  K  K1  1  0.67560300  0.08168700  0.67394700  1
  K  K2  1  0.82439700  0.58168700  0.67394700  1
  K  K3  1  0.17560300  0.41831300  0.17394700  1
  K  K4  1  0.31503900  0.92196800  0.83003000  1
  K  K5  1  0.68496100  0.07803200  0.33003000  1
  K  K6  1  0.81503900  0.57803200  0.33003000  1
  K  K7  1  0.18496100  0.42196800  0.83003000  1
  K  K8  1  0.18786300  0.00520300  0.50293400  1
  K  K9  1  0.81213700  0.99479700  0.00293400  1
  K  K10  1  0.68786300  0.49479700  0.00293400  1
  K  K11  1  0.31213700  0.50520300  0.50293400  1
  P  P12  1  0.48174800  0.79279100  0.39479600  1
  P  P13  1  0.51825200  0.20720900  0.89479600  1
  P  P14  1  0.98174800  0.70720900  0.89479600  1
  P  P15  1  0.01825200  0.29279100  0.39479600  1
  P  P16  1  0.29393900  0.66302600  0.00240200  1
  P  P17  1  0.70606100  0.33697400  0.50240200  1
  P  P18  1  0.79393900  0.83697400  0.50240200  1
  P  P19  1  0.20606100  0.16302600  0.00240200  1
  P  P20  1  0.48380500  0.79091800  0.61119600  1
  P  P21  1  0.51619500  0.20908200  0.11119600  1
  P  P22  1  0.98380500  0.70908200  0.11119600  1
  P  P23  1  0.01619500  0.29091800  0.61119600  1
  S  S24  1  0.49769000  0.75321100  0.00022800  1
  S  S25  1  0.50231000  0.24678900  0.50022800  1
  S  S26  1  0.99769000  0.74678900  0.50022800  1
  S  S27  1  0.00231000  0.25321100  0.00022800  1
  S  S28  1  0.43160200  0.66148400  0.69910900  1
  S  S29  1  0.56839800  0.33851600  0.19910900  1
  S  S30  1  0.93160200  0.83851600  0.19910900  1
  S  S31  1  0.06839800  0.16148400  0.69910900  1
  S  S32  1  0.42676900  0.66495700  0.30598400  1
  S  S33  1  0.57323100  0.33504300  0.80598400  1
  S  S34  1  0.92676900  0.83504300  0.80598400  1
  S  S35  1  0.07323100  0.16495700  0.30598400  1
  O  O36  1  0.41759300  0.75516200  0.50293500  1
  O  O37  1  0.58240700  0.24483800  0.00293500  1
  O  O38  1  0.91759300  0.74483800  0.00293500  1
  O  O39  1  0.08240700  0.25516200  0.50293500  1
  O  O40  1  0.07175500  0.41667200  0.37174000  1
  O  O41  1  0.92824500  0.58332800  0.87174000  1
  O  O42  1  0.57175500  0.08332800  0.87174000  1
  O  O43  1  0.42824500  0.91667200  0.37174000  1
  O  O44  1  0.42935100  0.91435300  0.63518900  1
  O  O45  1  0.57064900  0.08564700  0.13518900  1
  O  O46  1  0.92935100  0.58564700  0.13518900  1
  O  O47  1  0.07064900  0.41435300  0.63518900  1
  O  O48  1  0.19872600  0.03077100  0.00339400  1
  O  O49  1  0.80127400  0.96922900  0.50339400  1
  O  O50  1  0.69872600  0.46922900  0.50339400  1
  O  O51  1  0.30127400  0.53077100  0.00339400  1
  O  O52  1  0.31944900  0.20904400  0.91160600  1
  O  O53  1  0.68055100  0.79095600  0.41160600  1
  O  O54  1  0.81944900  0.29095600  0.41160600  1
  O  O55  1  0.18055100  0.70904400  0.91160600  1
  O  O56  1  0.31735400  0.21017200  0.09381000  1
  O  O57  1  0.68264600  0.78982800  0.59381000  1
  O  O58  1  0.81735400  0.28982800  0.59381000  1
  O  O59  1  0.18264600  0.71017200  0.09381000  1
