# generated using pymatgen
data_La3BN2O3
_symmetry_space_group_name_H-M   'P 1'
_cell_length_a   3.71563500
_cell_length_b   11.06076400
_cell_length_c   12.74595300
_cell_angle_alpha   90.00000000
_cell_angle_beta   90.00000000
_cell_angle_gamma   90.00000000
_symmetry_Int_Tables_number   1
_chemical_formula_structural   La3BN2O3
_chemical_formula_sum   'La12 B4 N8 O12'
_cell_volume   523.83014088
_cell_formula_units_Z   4
loop_
 _symmetry_equiv_pos_site_id
 _symmetry_equiv_pos_as_xyz
  1  'x, y, z'
loop_
 _atom_site_type_symbol
 _atom_site_label
 _atom_site_symmetry_multiplicity
 _atom_site_fract_x
 _atom_site_fract_y
 _atom_site_fract_z
 _atom_site_occupancy
  La  La0  1  0.25000000  0.41751000  0.38393700  1
  La  La1  1  0.25000000  0.08249000  0.88393700  1
  La  La2  1  0.75000000  0.58249000  0.61606300  1
  La  La3  1  0.75000000  0.91751000  0.11606300  1
  La  La4  1  0.25000000  0.27529900  0.62751300  1
  La  La5  1  0.25000000  0.22470100  0.12751300  1
  La  La6  1  0.75000000  0.72470100  0.37248700  1
  La  La7  1  0.75000000  0.77529900  0.87248700  1
  La  La8  1  0.75000000  0.11123400  0.38543500  1
  La  La9  1  0.75000000  0.38876600  0.88543500  1
  La  La10  1  0.25000000  0.88876600  0.61456500  1
  La  La11  1  0.25000000  0.61123400  0.11456500  1
  B  B12  1  0.75000000  0.08156200  0.70957000  1
  B  B13  1  0.75000000  0.41843800  0.20957000  1
  B  B14  1  0.25000000  0.91843800  0.29043000  1
  B  B15  1  0.25000000  0.58156200  0.79043000  1
  N  N16  1  0.25000000  0.46748600  0.73294900  1
  N  N17  1  0.25000000  0.03251400  0.23294900  1
  N  N18  1  0.75000000  0.53251400  0.26705100  1
  N  N19  1  0.75000000  0.96748600  0.76705100  1
  N  N20  1  0.75000000  0.19961500  0.76148800  1
  N  N21  1  0.75000000  0.30038500  0.26148800  1
  N  N22  1  0.25000000  0.80038500  0.23851200  1
  N  N23  1  0.25000000  0.69961500  0.73851200  1
  O  O24  1  0.25000000  0.60972700  0.46678000  1
  O  O25  1  0.25000000  0.89027300  0.96678000  1
  O  O26  1  0.75000000  0.39027300  0.53322000  1
  O  O27  1  0.75000000  0.10972700  0.03322000  1
  O  O28  1  0.25000000  0.21070500  0.44610400  1
  O  O29  1  0.25000000  0.28929500  0.94610400  1
  O  O30  1  0.75000000  0.78929500  0.55389600  1
  O  O31  1  0.75000000  0.71070500  0.05389600  1
  O  O32  1  0.75000000  0.07861300  0.59597900  1
  O  O33  1  0.75000000  0.42138700  0.09597900  1
  O  O34  1  0.25000000  0.92138700  0.40402100  1
  O  O35  1  0.25000000  0.57861300  0.90402100  1
