# generated using pymatgen
data_LaZn(BO2)5
_symmetry_space_group_name_H-M   'P 1'
_cell_length_a   7.68635400
_cell_length_b   8.87083200
_cell_length_c   12.78809923
_cell_angle_alpha   48.56743763
_cell_angle_beta   90.00000000
_cell_angle_gamma   90.00000000
_symmetry_Int_Tables_number   1
_chemical_formula_structural   LaZn(BO2)5
_chemical_formula_sum   'La4 Zn4 B20 O40'
_cell_volume   653.73025429
_cell_formula_units_Z   4
loop_
 _symmetry_equiv_pos_site_id
 _symmetry_equiv_pos_as_xyz
  1  'x, y, z'
loop_
 _atom_site_type_symbol
 _atom_site_label
 _atom_site_symmetry_multiplicity
 _atom_site_fract_x
 _atom_site_fract_y
 _atom_site_fract_z
 _atom_site_occupancy
  La  La0  1  0.18481400  0.05301400  0.26474300  1
  La  La1  1  0.31518600  0.05301400  0.76474300  1
  La  La2  1  0.81518600  0.94698600  0.73525700  1
  La  La3  1  0.68481400  0.94698600  0.23525700  1
  Zn  Zn4  1  0.91213200  0.48975400  0.12062000  1
  Zn  Zn5  1  0.58786800  0.48975400  0.62062000  1
  Zn  Zn6  1  0.08786800  0.51024600  0.87938000  1
  Zn  Zn7  1  0.41213200  0.51024600  0.37938000  1
  B  B8  1  0.08265900  0.64518700  0.26621800  1
  B  B9  1  0.41734100  0.64518700  0.76621800  1
  B  B10  1  0.91734100  0.35481300  0.73378200  1
  B  B11  1  0.58265900  0.35481300  0.23378200  1
  B  B12  1  0.81586700  0.51209700  0.41493500  1
  B  B13  1  0.68413300  0.51209700  0.91493500  1
  B  B14  1  0.18413300  0.48790300  0.58506500  1
  B  B15  1  0.31586700  0.48790300  0.08506500  1
  B  B16  1  0.32739500  0.90489000  0.10947100  1
  B  B17  1  0.17260500  0.90489000  0.60947100  1
  B  B18  1  0.67260500  0.09511000  0.89052900  1
  B  B19  1  0.82739500  0.09511000  0.39052900  1
  B  B20  1  0.53374800  0.73134400  0.05229800  1
  B  B21  1  0.96625200  0.73134400  0.55229800  1
  B  B22  1  0.46625200  0.26865600  0.94770200  1
  B  B23  1  0.03374800  0.26865600  0.44770200  1
  B  B24  1  0.09527600  0.84407500  0.00576300  1
  B  B25  1  0.40472400  0.84407500  0.50576300  1
  B  B26  1  0.90472400  0.15592500  0.99423700  1
  B  B27  1  0.59527600  0.15592500  0.49423700  1
  O  O28  1  0.21912500  0.78624700  0.23879700  1
  O  O29  1  0.28087500  0.78624700  0.73879700  1
  O  O30  1  0.78087500  0.21375300  0.76120300  1
  O  O31  1  0.71912500  0.21375300  0.26120300  1
  O  O32  1  0.91942200  0.67346100  0.31275300  1
  O  O33  1  0.58057800  0.67346100  0.81275300  1
  O  O34  1  0.08057800  0.32653900  0.68724700  1
  O  O35  1  0.41942200  0.32653900  0.18724700  1
  O  O36  1  0.03676000  0.68043300  0.13707700  1
  O  O37  1  0.46324000  0.68043300  0.63707700  1
  O  O38  1  0.96324000  0.31956700  0.86292300  1
  O  O39  1  0.53676000  0.31956700  0.36292300  1
  O  O40  1  0.47701100  0.77207700  0.14298800  1
  O  O41  1  0.02298900  0.77207700  0.64298800  1
  O  O42  1  0.52298900  0.22792300  0.85701200  1
  O  O43  1  0.97701100  0.22792300  0.35701200  1
  O  O44  1  0.39245700  0.08501600  0.08463700  1
  O  O45  1  0.10754300  0.08501600  0.58463700  1
  O  O46  1  0.60754300  0.91498400  0.91536300  1
  O  O47  1  0.89245700  0.91498400  0.41536300  1
  O  O48  1  0.22156900  0.96995100  0.99031800  1
  O  O49  1  0.27843100  0.96995100  0.49031800  1
  O  O50  1  0.77843100  0.03004900  0.00968200  1
  O  O51  1  0.72156900  0.03004900  0.50968200  1
  O  O52  1  0.65298000  0.55924600  0.12845400  1
  O  O53  1  0.84702000  0.55924600  0.62845400  1
  O  O54  1  0.34702000  0.44075400  0.87154600  1
  O  O55  1  0.15298000  0.44075400  0.37154600  1
  O  O56  1  0.87436400  0.31871900  0.48995500  1
  O  O57  1  0.62563600  0.31871900  0.98995500  1
  O  O58  1  0.12563600  0.68128100  0.51004500  1
  O  O59  1  0.37436400  0.68128100  0.01004500  1
  O  O60  1  0.65421800  0.56362600  0.43140900  1
  O  O61  1  0.84578200  0.56362600  0.93140900  1
  O  O62  1  0.34578200  0.43637400  0.56859100  1
  O  O63  1  0.15421800  0.43637400  0.06859100  1
  O  O64  1  0.03993600  0.88235300  0.88966100  1
  O  O65  1  0.46006400  0.88235300  0.38966100  1
  O  O66  1  0.96006400  0.11764700  0.11033900  1
  O  O67  1  0.53993600  0.11764700  0.61033900  1
