# generated using pymatgen
data_Sr3P4O13
_symmetry_space_group_name_H-M   'P 1'
_cell_length_a   7.36169000
_cell_length_b   7.85033902
_cell_length_c   10.32385808
_cell_angle_alpha   102.53435662
_cell_angle_beta   103.14408507
_cell_angle_gamma   94.36112126
_symmetry_Int_Tables_number   1
_chemical_formula_structural   Sr3P4O13
_chemical_formula_sum   'Sr6 P8 O26'
_cell_volume   562.19921833
_cell_formula_units_Z   2
loop_
 _symmetry_equiv_pos_site_id
 _symmetry_equiv_pos_as_xyz
  1  'x, y, z'
loop_
 _atom_site_type_symbol
 _atom_site_label
 _atom_site_symmetry_multiplicity
 _atom_site_fract_x
 _atom_site_fract_y
 _atom_site_fract_z
 _atom_site_occupancy
  Sr  Sr0  1  0.78577400  0.77053500  0.37409900  1
  Sr  Sr1  1  0.21422600  0.22946500  0.62590100  1
  Sr  Sr2  1  0.70670000  0.22091600  0.13610200  1
  Sr  Sr3  1  0.29330000  0.77908400  0.86389800  1
  Sr  Sr4  1  0.75061900  0.01596000  0.75681600  1
  Sr  Sr5  1  0.24938100  0.98404000  0.24318400  1
  P  P6  1  0.13798800  0.46329800  0.34772400  1
  P  P7  1  0.86201200  0.53670200  0.65227600  1
  P  P8  1  0.82614800  0.81049700  0.02160200  1
  P  P9  1  0.17385200  0.18950300  0.97839800  1
  P  P10  1  0.67125100  0.18982000  0.48839500  1
  P  P11  1  0.32874900  0.81018000  0.51160500  1
  P  P12  1  0.63837700  0.46098000  0.85881300  1
  P  P13  1  0.36162300  0.53902000  0.14118700  1
  O  O14  1  0.45439700  0.50967300  0.78840400  1
  O  O15  1  0.54560300  0.49032700  0.21159600  1
  O  O16  1  0.79075600  0.46948800  0.77082200  1
  O  O17  1  0.20924400  0.53051200  0.22917800  1
  O  O18  1  0.18284500  0.28344600  0.36342500  1
  O  O19  1  0.81715500  0.71655400  0.63657500  1
  O  O20  1  0.99129700  0.80826100  0.95635400  1
  O  O21  1  0.00870300  0.19173900  0.04364600  1
  O  O22  1  0.74447700  0.40121800  0.51473900  1
  O  O23  1  0.25552300  0.59878200  0.48526100  1
  O  O24  1  0.93264500  0.48742200  0.31717600  1
  O  O25  1  0.06735500  0.51257800  0.68282400  1
  O  O26  1  0.52590800  0.18092500  0.57135400  1
  O  O27  1  0.47409200  0.81907500  0.42864600  1
  O  O28  1  0.33635700  0.09922900  0.04616300  1
  O  O29  1  0.66364300  0.90077100  0.95383700  1
  O  O30  1  0.15504700  0.89701800  0.45621400  1
  O  O31  1  0.84495300  0.10298200  0.54378600  1
  O  O32  1  0.11819300  0.12022600  0.82193600  1
  O  O33  1  0.88180700  0.87977400  0.17806400  1
  O  O34  1  0.26369300  0.39705100  0.00085100  1
  O  O35  1  0.73630700  0.60294900  0.99914900  1
  O  O36  1  0.40046200  0.87168100  0.66716700  1
  O  O37  1  0.59953800  0.12831900  0.33283300  1
  O  O38  1  0.36638000  0.71691200  0.10753700  1
  O  O39  1  0.63362000  0.28308800  0.89246300  1
