# generated using pymatgen
data_SrBiAu
_symmetry_space_group_name_H-M   'P 1'
_cell_length_a   5.52994538
_cell_length_b   5.52994538
_cell_length_c   6.65831000
_cell_angle_alpha   90.00000000
_cell_angle_beta   90.00000000
_cell_angle_gamma   119.99999257
_symmetry_Int_Tables_number   1
_chemical_formula_structural   SrBiAu
_chemical_formula_sum   'Sr2 Bi2 Au2'
_cell_volume   176.33412163
_cell_formula_units_Z   2
loop_
 _symmetry_equiv_pos_site_id
 _symmetry_equiv_pos_as_xyz
  1  'x, y, z'
loop_
 _atom_site_type_symbol
 _atom_site_label
 _atom_site_symmetry_multiplicity
 _atom_site_fract_x
 _atom_site_fract_y
 _atom_site_fract_z
 _atom_site_occupancy
  Sr  Sr0  1  0.66666700  0.33333300  0.75000000  1
  Sr  Sr1  1  0.33333300  0.66666700  0.25000000  1
  Bi  Bi2  1  0.33333300  0.66666700  0.75000000  1
  Bi  Bi3  1  0.66666700  0.33333300  0.25000000  1
  Au  Au4  1  0.00000000  0.00000000  0.00000000  1
  Au  Au5  1  0.00000000  0.00000000  0.50000000  1
