# generated using pymatgen
data_K2MgF4
_symmetry_space_group_name_H-M   'P 1'
_cell_length_a   7.25949424
_cell_length_b   7.25949424
_cell_length_c   7.25949424
_cell_angle_alpha   147.72709800
_cell_angle_beta   147.72709800
_cell_angle_gamma   46.28838787
_symmetry_Int_Tables_number   1
_chemical_formula_structural   K2MgF4
_chemical_formula_sum   'K2 Mg1 F4'
_cell_volume   108.69196622
_cell_formula_units_Z   1
loop_
 _symmetry_equiv_pos_site_id
 _symmetry_equiv_pos_as_xyz
  1  'x, y, z'
loop_
 _atom_site_type_symbol
 _atom_site_label
 _atom_site_symmetry_multiplicity
 _atom_site_fract_x
 _atom_site_fract_y
 _atom_site_fract_z
 _atom_site_occupancy
  K  K0  1  0.64816500  0.64816500  0.00000000  1
  K  K1  1  0.35183500  0.35183500  0.00000000  1
  Mg  Mg2  1  0.00000000  0.00000000  0.00000000  1
  F  F3  1  0.50000000  0.00000000  0.50000000  1
  F  F4  1  0.00000000  0.50000000  0.50000000  1
  F  F5  1  0.84788700  0.84788700  0.00000000  1
  F  F6  1  0.15211300  0.15211300  0.00000000  1
