# generated using pymatgen
data_ErCoSi2
_symmetry_space_group_name_H-M   'P 1'
_cell_length_a   8.36162448
_cell_length_b   8.36162448
_cell_length_c   3.96470000
_cell_angle_alpha   90.00000000
_cell_angle_beta   90.00000000
_cell_angle_gamma   152.33961446
_symmetry_Int_Tables_number   1
_chemical_formula_structural   ErCoSi2
_chemical_formula_sum   'Er2 Co2 Si4'
_cell_volume   128.68402558
_cell_formula_units_Z   2
loop_
 _symmetry_equiv_pos_site_id
 _symmetry_equiv_pos_as_xyz
  1  'x, y, z'
loop_
 _atom_site_type_symbol
 _atom_site_label
 _atom_site_symmetry_multiplicity
 _atom_site_fract_x
 _atom_site_fract_y
 _atom_site_fract_z
 _atom_site_occupancy
  Er  Er0  1  0.10750700  0.89249300  0.25000000  1
  Er  Er1  1  0.89249300  0.10750700  0.75000000  1
  Co  Co2  1  0.67844300  0.32155700  0.75000000  1
  Co  Co3  1  0.32155700  0.67844300  0.25000000  1
  Si  Si4  1  0.75009400  0.24990600  0.25000000  1
  Si  Si5  1  0.24990600  0.75009400  0.75000000  1
  Si  Si6  1  0.54212000  0.45788000  0.75000000  1
  Si  Si7  1  0.45788000  0.54212000  0.25000000  1
