# generated using pymatgen
data_Zr(TeCl)6
_symmetry_space_group_name_H-M   'P 1'
_cell_length_a   11.38149100
_cell_length_b   11.44097100
_cell_length_c   13.14108200
_cell_angle_alpha   90.00000000
_cell_angle_beta   90.00000000
_cell_angle_gamma   90.00000000
_symmetry_Int_Tables_number   1
_chemical_formula_structural   Zr(TeCl)6
_chemical_formula_sum   'Zr4 Te24 Cl24'
_cell_volume   1711.17004623
_cell_formula_units_Z   4
loop_
 _symmetry_equiv_pos_site_id
 _symmetry_equiv_pos_as_xyz
  1  'x, y, z'
loop_
 _atom_site_type_symbol
 _atom_site_label
 _atom_site_symmetry_multiplicity
 _atom_site_fract_x
 _atom_site_fract_y
 _atom_site_fract_z
 _atom_site_occupancy
  Zr  Zr0  1  0.73684800  0.20745300  0.25000000  1
  Zr  Zr1  1  0.26315200  0.70745300  0.25000000  1
  Zr  Zr2  1  0.73684800  0.29254700  0.75000000  1
  Zr  Zr3  1  0.26315200  0.79254700  0.75000000  1
  Te  Te4  1  0.72598900  0.75814700  0.25000000  1
  Te  Te5  1  0.27401100  0.25814700  0.25000000  1
  Te  Te6  1  0.72598900  0.74185300  0.75000000  1
  Te  Te7  1  0.27401100  0.24185300  0.75000000  1
  Te  Te8  1  0.02370700  0.25000000  0.50000000  1
  Te  Te9  1  0.97629300  0.75000000  0.00000000  1
  Te  Te10  1  0.97629300  0.75000000  0.50000000  1
  Te  Te11  1  0.02370700  0.25000000  0.00000000  1
  Te  Te12  1  0.38586200  0.36459700  0.46853700  1
  Te  Te13  1  0.61413800  0.86459700  0.03146300  1
  Te  Te14  1  0.38586200  0.13540300  0.53146300  1
  Te  Te15  1  0.61413800  0.63540300  0.96853700  1
  Te  Te16  1  0.61413800  0.63540300  0.53146300  1
  Te  Te17  1  0.38586200  0.13540300  0.96853700  1
  Te  Te18  1  0.61413800  0.86459700  0.46853700  1
  Te  Te19  1  0.38586200  0.36459700  0.03146300  1
  Te  Te20  1  0.18476300  0.39908400  0.59634700  1
  Te  Te21  1  0.81523700  0.89908400  0.90365300  1
  Te  Te22  1  0.18476300  0.10091600  0.40365300  1
  Te  Te23  1  0.81523700  0.60091600  0.09634700  1
  Te  Te24  1  0.81523700  0.60091600  0.40365300  1
  Te  Te25  1  0.18476300  0.10091600  0.09634700  1
  Te  Te26  1  0.81523700  0.89908400  0.59634700  1
  Te  Te27  1  0.18476300  0.39908400  0.90365300  1
  Cl  Cl28  1  0.84355900  0.09042500  0.11499200  1
  Cl  Cl29  1  0.15644100  0.59042500  0.38500800  1
  Cl  Cl30  1  0.84355900  0.40957500  0.88500800  1
  Cl  Cl31  1  0.15644100  0.90957500  0.61499200  1
  Cl  Cl32  1  0.15644100  0.90957500  0.88500800  1
  Cl  Cl33  1  0.84355900  0.40957500  0.61499200  1
  Cl  Cl34  1  0.15644100  0.59042500  0.11499200  1
  Cl  Cl35  1  0.84355900  0.09042500  0.38500800  1
  Cl  Cl36  1  0.63564800  0.32826100  0.38165700  1
  Cl  Cl37  1  0.36435200  0.82826100  0.11834300  1
  Cl  Cl38  1  0.63564800  0.17173900  0.61834300  1
  Cl  Cl39  1  0.36435200  0.67173900  0.88165700  1
  Cl  Cl40  1  0.36435200  0.67173900  0.61834300  1
  Cl  Cl41  1  0.63564800  0.17173900  0.88165700  1
  Cl  Cl42  1  0.36435200  0.82826100  0.38165700  1
  Cl  Cl43  1  0.63564800  0.32826100  0.11834300  1
  Cl  Cl44  1  0.09848400  0.65471500  0.75000000  1
  Cl  Cl45  1  0.90151600  0.15471500  0.75000000  1
  Cl  Cl46  1  0.09848400  0.84528500  0.25000000  1
  Cl  Cl47  1  0.90151600  0.34528500  0.25000000  1
  Cl  Cl48  1  0.41951300  0.94291200  0.75000000  1
  Cl  Cl49  1  0.58048700  0.44291200  0.75000000  1
  Cl  Cl50  1  0.41951300  0.55708800  0.25000000  1
  Cl  Cl51  1  0.58048700  0.05708800  0.25000000  1
