# generated using pymatgen
data_Li8PO3
_symmetry_space_group_name_H-M   'P 1'
_cell_length_a   5.03409900
_cell_length_b   5.03409900
_cell_length_c   5.03409900
_cell_angle_alpha   90.00000000
_cell_angle_beta   90.00000000
_cell_angle_gamma   90.00000000
_symmetry_Int_Tables_number   1
_chemical_formula_structural   Li8PO3
_chemical_formula_sum   'Li8 P1 O3'
_cell_volume   127.57490578
_cell_formula_units_Z   1
loop_
 _symmetry_equiv_pos_site_id
 _symmetry_equiv_pos_as_xyz
  1  'x, y, z'
loop_
 _atom_site_type_symbol
 _atom_site_label
 _atom_site_symmetry_multiplicity
 _atom_site_fract_x
 _atom_site_fract_y
 _atom_site_fract_z
 _atom_site_occupancy
  Li  Li0  1  0.26612700  0.26612700  0.26612700  1
  Li  Li1  1  0.73387300  0.73387300  0.26612700  1
  Li  Li2  1  0.73387300  0.26612700  0.73387300  1
  Li  Li3  1  0.26612700  0.73387300  0.73387300  1
  Li  Li4  1  0.26612700  0.26612700  0.73387300  1
  Li  Li5  1  0.73387300  0.73387300  0.73387300  1
  Li  Li6  1  0.73387300  0.26612700  0.26612700  1
  Li  Li7  1  0.26612700  0.73387300  0.26612700  1
  P  P8  1  0.00000000  0.00000000  0.00000000  1
  O  O9  1  0.00000000  0.50000000  0.50000000  1
  O  O10  1  0.50000000  0.50000000  0.00000000  1
  O  O11  1  0.50000000  0.00000000  0.50000000  1
