# generated using pymatgen
data_Sb2Te4Pb
_symmetry_space_group_name_H-M   'P 1'
_cell_length_a   14.38590995
_cell_length_b   14.38590995
_cell_length_c   14.38590979
_cell_angle_alpha   17.66628871
_cell_angle_beta   17.66628871
_cell_angle_gamma   17.66628817
_symmetry_Int_Tables_number   1
_chemical_formula_structural   Sb2Te4Pb
_chemical_formula_sum   'Sb2 Te4 Pb1'
_cell_volume   239.33590970
_cell_formula_units_Z   1
loop_
 _symmetry_equiv_pos_site_id
 _symmetry_equiv_pos_as_xyz
  1  'x, y, z'
loop_
 _atom_site_type_symbol
 _atom_site_label
 _atom_site_symmetry_multiplicity
 _atom_site_fract_x
 _atom_site_fract_y
 _atom_site_fract_z
 _atom_site_occupancy
  Sb  Sb0  1  0.57310100  0.57310100  0.57310100  1
  Sb  Sb1  1  0.42689900  0.42689900  0.42689900  1
  Te  Te2  1  0.71422000  0.71422000  0.71422000  1
  Te  Te3  1  0.13239600  0.13239600  0.13239600  1
  Te  Te4  1  0.86760400  0.86760400  0.86760400  1
  Te  Te5  1  0.28578000  0.28578000  0.28578000  1
  Pb  Pb6  1  0.00000000  0.00000000  0.00000000  1
