# generated using pymatgen
data_Co3(PO4)4
_symmetry_space_group_name_H-M   'P 1'
_cell_length_a   5.08924900
_cell_length_b   8.42656700
_cell_length_c   15.54395472
_cell_angle_alpha   66.84692165
_cell_angle_beta   90.00000000
_cell_angle_gamma   90.00000000
_symmetry_Int_Tables_number   1
_chemical_formula_structural   Co3(PO4)4
_chemical_formula_sum   'Co6 P8 O32'
_cell_volume   612.91130070
_cell_formula_units_Z   2
loop_
 _symmetry_equiv_pos_site_id
 _symmetry_equiv_pos_as_xyz
  1  'x, y, z'
loop_
 _atom_site_type_symbol
 _atom_site_label
 _atom_site_symmetry_multiplicity
 _atom_site_fract_x
 _atom_site_fract_y
 _atom_site_fract_z
 _atom_site_occupancy
  Co  Co0  1  0.41230200  0.18625700  0.30040800  1
  Co  Co1  1  0.08769800  0.18625700  0.80040800  1
  Co  Co2  1  0.91230200  0.81374300  0.19959200  1
  Co  Co3  1  0.58769800  0.81374300  0.69959200  1
  Co  Co4  1  0.50000000  0.50000000  0.00000000  1
  Co  Co5  1  0.00000000  0.50000000  0.50000000  1
  P  P6  1  0.51015100  0.47427200  0.64625900  1
  P  P7  1  0.04878100  0.08014300  0.61645700  1
  P  P8  1  0.98984900  0.47427200  0.14625900  1
  P  P9  1  0.54878100  0.91985700  0.88354300  1
  P  P10  1  0.95121900  0.91985700  0.38354300  1
  P  P11  1  0.01015100  0.52572800  0.85374100  1
  P  P12  1  0.48984900  0.52572800  0.35374100  1
  P  P13  1  0.45121900  0.08014300  0.11645700  1
  O  O14  1  0.03682500  0.25216700  0.53028400  1
  O  O15  1  0.52422300  0.35795000  0.33592700  1
  O  O16  1  0.20364000  0.54749700  0.37791700  1
  O  O17  1  0.70364000  0.45250300  0.12208300  1
  O  O18  1  0.02422300  0.64205000  0.16407300  1
  O  O19  1  0.59023000  0.68212000  0.26908200  1
  O  O20  1  0.97577700  0.35795000  0.83592700  1
  O  O21  1  0.99127700  0.89062600  0.29248500  1
  O  O22  1  0.83224200  0.50774000  0.93808900  1
  O  O23  1  0.96317500  0.74783300  0.46971600  1
  O  O24  1  0.66775800  0.50774000  0.43808900  1
  O  O25  1  0.80311900  0.01757800  0.88360700  1
  O  O26  1  0.17921800  0.03416100  0.39353400  1
  O  O27  1  0.79636000  0.45250300  0.62208300  1
  O  O28  1  0.30311900  0.98242200  0.61639300  1
  O  O29  1  0.46317500  0.25216700  0.03028400  1
  O  O30  1  0.16775800  0.49226000  0.06191100  1
  O  O31  1  0.09023000  0.31788000  0.23091800  1
  O  O32  1  0.53682500  0.74783300  0.96971600  1
  O  O33  1  0.82078200  0.96583900  0.60646600  1
  O  O34  1  0.00872300  0.10937400  0.70751500  1
  O  O35  1  0.47577700  0.64205000  0.66407300  1
  O  O36  1  0.90977000  0.68212000  0.76908200  1
  O  O37  1  0.50872300  0.89062600  0.79248500  1
  O  O38  1  0.29636000  0.54749700  0.87791700  1
  O  O39  1  0.33224200  0.49226000  0.56191100  1
  O  O40  1  0.49127700  0.10937400  0.20751500  1
  O  O41  1  0.19688100  0.98242200  0.11639300  1
  O  O42  1  0.32078200  0.03416100  0.89353400  1
  O  O43  1  0.40977000  0.31788000  0.73091800  1
  O  O44  1  0.69688100  0.01757800  0.38360700  1
  O  O45  1  0.67921800  0.96583900  0.10646600  1
