# generated using pymatgen
data_Pr2Si2O7
_symmetry_space_group_name_H-M   'P 1'
_cell_length_a   6.85816200
_cell_length_b   6.85816200
_cell_length_c   24.96009100
_cell_angle_alpha   90.00000000
_cell_angle_beta   90.00000000
_cell_angle_gamma   90.00000000
_symmetry_Int_Tables_number   1
_chemical_formula_structural   Pr2Si2O7
_chemical_formula_sum   'Pr16 Si16 O56'
_cell_volume   1173.98255514
_cell_formula_units_Z   8
loop_
 _symmetry_equiv_pos_site_id
 _symmetry_equiv_pos_as_xyz
  1  'x, y, z'
loop_
 _atom_site_type_symbol
 _atom_site_label
 _atom_site_symmetry_multiplicity
 _atom_site_fract_x
 _atom_site_fract_y
 _atom_site_fract_z
 _atom_site_occupancy
  Pr  Pr0  1  0.86925300  0.24139000  0.63320500  1
  Pr  Pr1  1  0.75861000  0.86925300  0.88320500  1
  Pr  Pr2  1  0.24139000  0.13074700  0.38320500  1
  Pr  Pr3  1  0.13074700  0.75861000  0.13320500  1
  Pr  Pr4  1  0.65867600  0.08305300  0.49516100  1
  Pr  Pr5  1  0.91694700  0.65867600  0.74516100  1
  Pr  Pr6  1  0.08305300  0.34132400  0.24516100  1
  Pr  Pr7  1  0.34132400  0.91694700  0.99516100  1
  Pr  Pr8  1  0.47709000  0.83269700  0.64150200  1
  Pr  Pr9  1  0.16730300  0.47709000  0.89150200  1
  Pr  Pr10  1  0.83269700  0.52291000  0.39150200  1
  Pr  Pr11  1  0.52291000  0.16730300  0.14150200  1
  Pr  Pr12  1  0.22549600  0.70643700  0.49466500  1
  Pr  Pr13  1  0.29356300  0.22549600  0.74466500  1
  Pr  Pr14  1  0.70643700  0.77450400  0.24466500  1
  Pr  Pr15  1  0.77450400  0.29356300  0.99466500  1
  Si  Si16  1  0.98292100  0.71311000  0.61398300  1
  Si  Si17  1  0.28689000  0.98292100  0.86398300  1
  Si  Si18  1  0.71311000  0.01707900  0.36398300  1
  Si  Si19  1  0.01707900  0.28689000  0.11398300  1
  Si  Si20  1  0.73301200  0.62543700  0.51396300  1
  Si  Si21  1  0.37456300  0.73301200  0.76396300  1
  Si  Si22  1  0.62543700  0.26698800  0.26396300  1
  Si  Si23  1  0.26698800  0.37456300  0.01396300  1
  Si  Si24  1  0.39621700  0.30674100  0.60715700  1
  Si  Si25  1  0.69325900  0.39621700  0.85715700  1
  Si  Si26  1  0.30674100  0.60378400  0.35715700  1
  Si  Si27  1  0.60378400  0.69325900  0.10715700  1
  Si  Si28  1  0.14524000  0.24012100  0.50866700  1
  Si  Si29  1  0.75987900  0.14524000  0.75866700  1
  Si  Si30  1  0.24012100  0.85476000  0.25866700  1
  Si  Si31  1  0.85476000  0.75987900  0.00866700  1
  O  O32  1  0.18359100  0.79463000  0.58810000  1
  O  O33  1  0.20537000  0.18359100  0.83810000  1
  O  O34  1  0.79463000  0.81640900  0.33810000  1
  O  O35  1  0.81640900  0.20537000  0.08810000  1
  O  O36  1  0.83762100  0.87932300  0.63835700  1
  O  O37  1  0.12067700  0.83762100  0.88835700  1
  O  O38  1  0.87932300  0.16237900  0.38835700  1
  O  O39  1  0.16237900  0.12067700  0.13835700  1
  O  O40  1  0.01485800  0.54860800  0.66015500  1
  O  O41  1  0.45139200  0.01485800  0.91015500  1
  O  O42  1  0.54860800  0.98514200  0.41015500  1
  O  O43  1  0.98514200  0.45139200  0.16015500  1
  O  O44  1  0.87547500  0.57571100  0.56621300  1
  O  O45  1  0.42428900  0.87547500  0.81621300  1
  O  O46  1  0.57571100  0.12452500  0.31621300  1
  O  O47  1  0.12452500  0.42428900  0.06621300  1
  O  O48  1  0.86746100  0.76273200  0.47371900  1
  O  O49  1  0.23726800  0.86746100  0.72371900  1
  O  O50  1  0.76273200  0.13253900  0.22371900  1
  O  O51  1  0.13253900  0.23726800  0.97371900  1
  O  O52  1  0.54959300  0.76300600  0.53287900  1
  O  O53  1  0.55745000  0.13895400  0.58820500  1
  O  O54  1  0.23699400  0.54959300  0.78287900  1
  O  O55  1  0.45040700  0.23699400  0.03287900  1
  O  O56  1  0.67117500  0.42955200  0.48220200  1
  O  O57  1  0.57044800  0.67117500  0.73220200  1
  O  O58  1  0.42955200  0.32882500  0.23220200  1
  O  O59  1  0.32882500  0.57044800  0.98220200  1
  O  O60  1  0.23978400  0.19817400  0.64700800  1
  O  O61  1  0.80182600  0.23978400  0.89700800  1
  O  O62  1  0.19817400  0.76021600  0.39700800  1
  O  O63  1  0.76021600  0.80182600  0.14700800  1
  O  O64  1  0.89110300  0.60859800  0.95845300  1
  O  O65  1  0.39140200  0.89110300  0.20845300  1
  O  O66  1  0.60859800  0.10889700  0.70845300  1
  O  O67  1  0.10889700  0.39140200  0.45845300  1
  O  O68  1  0.72366000  0.93855600  0.98384800  1
  O  O69  1  0.06144400  0.72366000  0.23384800  1
  O  O70  1  0.93855600  0.27634000  0.73384800  1
  O  O71  1  0.27634000  0.06144400  0.48384800  1
  O  O72  1  0.04547500  0.83968300  0.04031200  1
  O  O73  1  0.16031700  0.04547500  0.29031200  1
  O  O74  1  0.83968300  0.95452500  0.79031200  1
  O  O75  1  0.95452500  0.16031700  0.54031200  1
  O  O76  1  0.72139600  0.62368000  0.05084700  1
  O  O77  1  0.37632000  0.72139600  0.30084700  1
  O  O78  1  0.62368000  0.27860400  0.80084700  1
  O  O79  1  0.27860400  0.37632000  0.55084700  1
  O  O80  1  0.48029000  0.51462900  0.13199100  1
  O  O81  1  0.48537100  0.48029000  0.38199100  1
  O  O82  1  0.51462900  0.51971000  0.88199100  1
  O  O83  1  0.51971000  0.48537100  0.63199100  1
  O  O84  1  0.44255000  0.86104600  0.08820500  1
  O  O85  1  0.13895400  0.44255000  0.33820500  1
  O  O86  1  0.86104600  0.55745000  0.83820500  1
  O  O87  1  0.76300600  0.45040700  0.28287900  1
