# generated using pymatgen
data_Cr(PO3)3
_symmetry_space_group_name_H-M   'P 1'
_cell_length_a   9.36577700
_cell_length_b   9.38388717
_cell_length_c   9.62057736
_cell_angle_alpha   104.13207302
_cell_angle_beta   109.96844590
_cell_angle_gamma   108.81730638
_symmetry_Int_Tables_number   1
_chemical_formula_structural   Cr(PO3)3
_chemical_formula_sum   'Cr4 P12 O36'
_cell_volume   689.99098971
_cell_formula_units_Z   4
loop_
 _symmetry_equiv_pos_site_id
 _symmetry_equiv_pos_as_xyz
  1  'x, y, z'
loop_
 _atom_site_type_symbol
 _atom_site_label
 _atom_site_symmetry_multiplicity
 _atom_site_fract_x
 _atom_site_fract_y
 _atom_site_fract_z
 _atom_site_occupancy
  Cr  Cr0  1  0.69910700  0.90048800  0.79086000  1
  Cr  Cr1  1  0.77400100  0.25143900  0.72820700  1
  Cr  Cr2  1  0.30089300  0.09951200  0.20914000  1
  Cr  Cr3  1  0.22599900  0.74856100  0.27179300  1
  P  P4  1  0.33457700  0.57194900  0.69490400  1
  P  P5  1  0.43667300  0.30228800  0.59288700  1
  P  P6  1  0.38948300  0.99689700  0.64768800  1
  P  P7  1  0.84462800  0.48682400  0.09932400  1
  P  P8  1  0.61051700  0.00310300  0.35231200  1
  P  P9  1  0.66542300  0.42805100  0.30509600  1
  P  P10  1  0.79691300  0.06486400  0.16792200  1
  P  P11  1  0.09729100  0.18679600  0.92367500  1
  P  P12  1  0.56332700  0.69771200  0.40711300  1
  P  P13  1  0.90270900  0.81320400  0.07632500  1
  P  P14  1  0.20308700  0.93513600  0.83207800  1
  P  P15  1  0.15537200  0.51317600  0.90067600  1
  O  O16  1  0.19593800  0.37162200  0.95258500  1
  O  O17  1  0.85846700  0.82753600  0.91579700  1
  O  O18  1  0.74051700  0.14762700  0.50529100  1
  O  O19  1  0.42388200  0.96654300  0.31383900  1
  O  O20  1  0.93705900  0.21896100  0.29444400  1
  O  O21  1  0.51156200  0.26475400  0.23972900  1
  O  O22  1  0.01998100  0.57035200  0.23869000  1
  O  O23  1  0.18804500  0.64424400  0.04881800  1
  O  O24  1  0.83170000  0.90337000  0.17630000  1
  O  O25  1  0.80406200  0.62837800  0.04741500  1
  O  O26  1  0.81195500  0.35575600  0.95118200  1
  O  O27  1  0.48843800  0.73524600  0.76027100  1
  O  O28  1  0.36283900  0.15483100  0.64522500  1
  O  O29  1  0.27587700  0.96011500  0.00759600  1
  O  O30  1  0.58578600  0.56190000  0.29667000  1
  O  O31  1  0.32774400  0.24841500  0.41556500  1
  O  O32  1  0.25948300  0.85237300  0.49470900  1
  O  O33  1  0.62360300  0.35097400  0.64989200  1
  O  O34  1  0.18228800  0.51419900  0.54591600  1
  O  O35  1  0.67225600  0.75158500  0.58443500  1
  O  O36  1  0.98001900  0.42964800  0.76131000  1
  O  O37  1  0.41421400  0.43810000  0.70333000  1
  O  O38  1  0.09510300  0.87855000  0.18391300  1
  O  O39  1  0.57611800  0.03345700  0.68616100  1
  O  O40  1  0.37184100  0.98785200  0.80182200  1
  O  O41  1  0.06294100  0.78103900  0.70555600  1
  O  O42  1  0.14153300  0.17246400  0.08420300  1
  O  O43  1  0.81771200  0.48580100  0.45408400  1
  O  O44  1  0.16830000  0.09663000  0.82370000  1
  O  O45  1  0.62815900  0.01214800  0.19817800  1
  O  O46  1  0.37639700  0.64902600  0.35010800  1
  O  O47  1  0.30128400  0.58632700  0.85547200  1
  O  O48  1  0.72412300  0.03988500  0.99240400  1
  O  O49  1  0.90489700  0.12145000  0.81608700  1
  O  O50  1  0.63716100  0.84516900  0.35477500  1
  O  O51  1  0.69871600  0.41367300  0.14452800  1
