# generated using pymatgen
data_Na2Si2O5
_symmetry_space_group_name_H-M   'P 1'
_cell_length_a   4.92057600
_cell_length_b   8.22125300
_cell_length_c   12.46557041
_cell_angle_alpha   75.76492430
_cell_angle_beta   90.00000000
_cell_angle_gamma   90.00000000
_symmetry_Int_Tables_number   1
_chemical_formula_structural   Na2Si2O5
_chemical_formula_sum   'Na8 Si8 O20'
_cell_volume   488.78974248
_cell_formula_units_Z   4
loop_
 _symmetry_equiv_pos_site_id
 _symmetry_equiv_pos_as_xyz
  1  'x, y, z'
loop_
 _atom_site_type_symbol
 _atom_site_label
 _atom_site_symmetry_multiplicity
 _atom_site_fract_x
 _atom_site_fract_y
 _atom_site_fract_z
 _atom_site_occupancy
  Na  Na0  1  0.75386300  0.62066400  0.44254100  1
  Na  Na1  1  0.25386300  0.37933600  0.05745900  1
  Na  Na2  1  0.24613700  0.37933600  0.55745900  1
  Na  Na3  1  0.74613700  0.62066400  0.94254100  1
  Na  Na4  1  0.22641000  0.86466100  0.47170100  1
  Na  Na5  1  0.72641000  0.13533900  0.02829900  1
  Na  Na6  1  0.77359000  0.13533900  0.52829900  1
  Na  Na7  1  0.27359000  0.86466100  0.97170100  1
  Si  Si8  1  0.18842700  0.97246000  0.18255800  1
  Si  Si9  1  0.68842700  0.02754000  0.31744200  1
  Si  Si10  1  0.81157300  0.02754000  0.81744200  1
  Si  Si11  1  0.31157300  0.97246000  0.68255800  1
  Si  Si12  1  0.29186800  0.59676900  0.27721300  1
  Si  Si13  1  0.79186800  0.40323100  0.22278700  1
  Si  Si14  1  0.70813200  0.40323100  0.72278700  1
  Si  Si15  1  0.20813200  0.59676900  0.77721300  1
  O  O16  1  0.25151900  0.09333700  0.56397200  1
  O  O17  1  0.75151900  0.90666300  0.93602800  1
  O  O18  1  0.74848100  0.90666300  0.43602800  1
  O  O19  1  0.24848100  0.09333700  0.06397200  1
  O  O20  1  0.26992800  0.60856600  0.90120600  1
  O  O21  1  0.76992800  0.39143400  0.59879400  1
  O  O22  1  0.73007200  0.39143400  0.09879400  1
  O  O23  1  0.23007200  0.60856600  0.40120600  1
  O  O24  1  0.25319200  0.77436000  0.68090900  1
  O  O25  1  0.75319200  0.22564000  0.81909100  1
  O  O26  1  0.74680800  0.22564000  0.31909100  1
  O  O27  1  0.24680800  0.77436000  0.18090900  1
  O  O28  1  0.88428500  0.54481700  0.76779700  1
  O  O29  1  0.38428500  0.45518300  0.73220300  1
  O  O30  1  0.11571500  0.45518300  0.23220300  1
  O  O31  1  0.61571500  0.54481700  0.26779700  1
  O  O32  1  0.86329600  0.98546200  0.21445600  1
  O  O33  1  0.36329600  0.01453800  0.28554400  1
  O  O34  1  0.13670400  0.01453800  0.78554400  1
  O  O35  1  0.63670400  0.98546200  0.71445600  1
