# generated using pymatgen
data_Ho(FeSi)2
_symmetry_space_group_name_H-M   'P 1'
_cell_length_a   5.50808972
_cell_length_b   5.50808972
_cell_length_c   5.50808972
_cell_angle_alpha   137.93119624
_cell_angle_beta   137.93119624
_cell_angle_gamma   61.00839104
_symmetry_Int_Tables_number   1
_chemical_formula_structural   Ho(FeSi)2
_chemical_formula_sum   'Ho1 Fe2 Si2'
_cell_volume   74.19598137
_cell_formula_units_Z   1
loop_
 _symmetry_equiv_pos_site_id
 _symmetry_equiv_pos_as_xyz
  1  'x, y, z'
loop_
 _atom_site_type_symbol
 _atom_site_label
 _atom_site_symmetry_multiplicity
 _atom_site_fract_x
 _atom_site_fract_y
 _atom_site_fract_z
 _atom_site_occupancy
  Ho  Ho0  1  0.00000000  0.00000000  0.00000000  1
  Fe  Fe1  1  0.25000000  0.75000000  0.50000000  1
  Fe  Fe2  1  0.75000000  0.25000000  0.50000000  1
  Si  Si3  1  0.63383300  0.63383300  0.00000000  1
  Si  Si4  1  0.36616800  0.36616800  0.00000000  1
