# generated using pymatgen
data_Mo2P3O13
_symmetry_space_group_name_H-M   'P 1'
_cell_length_a   6.44171400
_cell_length_b   7.54757280
_cell_length_c   11.25608449
_cell_angle_alpha   76.37718225
_cell_angle_beta   86.20788483
_cell_angle_gamma   80.05693895
_symmetry_Int_Tables_number   1
_chemical_formula_structural   Mo2P3O13
_chemical_formula_sum   'Mo4 P6 O26'
_cell_volume   523.69284431
_cell_formula_units_Z   2
loop_
 _symmetry_equiv_pos_site_id
 _symmetry_equiv_pos_as_xyz
  1  'x, y, z'
loop_
 _atom_site_type_symbol
 _atom_site_label
 _atom_site_symmetry_multiplicity
 _atom_site_fract_x
 _atom_site_fract_y
 _atom_site_fract_z
 _atom_site_occupancy
  Mo  Mo0  1  0.21366900  0.21001000  0.09272800  1
  Mo  Mo1  1  0.76031700  0.79742100  0.40752200  1
  Mo  Mo2  1  0.78633100  0.78999000  0.90727200  1
  Mo  Mo3  1  0.23968300  0.20257900  0.59247800  1
  P  P4  1  0.26356300  0.93411400  0.89080300  1
  P  P5  1  0.74033900  0.20031100  0.66482700  1
  P  P6  1  0.25966100  0.79968900  0.33517300  1
  P  P7  1  0.73643700  0.06588600  0.10919700  1
  P  P8  1  0.88225400  0.52335400  0.69063400  1
  P  P9  1  0.11774600  0.47664600  0.30936600  1
  O  O10  1  0.77919000  0.63283600  0.04219900  1
  O  O11  1  0.47780100  0.80683400  0.88189900  1
  O  O12  1  0.10942600  0.45549300  0.66036300  1
  O  O13  1  0.22168300  0.09934200  0.78446900  1
  O  O14  1  0.90912700  0.19144700  0.09238000  1
  O  O15  1  0.85711100  0.61807100  0.80107100  1
  O  O16  1  0.52219900  0.19316600  0.11810100  1
  O  O17  1  0.26826900  0.99900400  0.01221400  1
  O  O18  1  0.24268400  0.98890800  0.24925300  1
  O  O19  1  0.14288900  0.38192900  0.19892900  1
  O  O20  1  0.31052400  0.98431300  0.57233200  1
  O  O21  1  0.75276100  0.64887900  0.58533500  1
  O  O22  1  0.75731600  0.01109200  0.75074700  1
  O  O23  1  0.92198200  0.21249600  0.56977400  1
  O  O24  1  0.73173100  0.00099600  0.98778600  1
  O  O25  1  0.22081000  0.36716400  0.95780100  1
  O  O26  1  0.09087300  0.80855300  0.90762000  1
  O  O27  1  0.24723900  0.35112100  0.41466500  1
  O  O28  1  0.07801800  0.78750400  0.43022600  1
  O  O29  1  0.52926400  0.26935000  0.60320800  1
  O  O30  1  0.47073600  0.73065000  0.39679200  1
  O  O31  1  0.89057400  0.54450700  0.33963700  1
  O  O32  1  0.68947600  0.01568700  0.42766800  1
  O  O33  1  0.76249400  0.34869400  0.74592200  1
  O  O34  1  0.23750600  0.65130600  0.25407800  1
  O  O35  1  0.77831700  0.90065800  0.21553100  1
