# generated using pymatgen
data_V(PO3)4
_symmetry_space_group_name_H-M   'P 1'
_cell_length_a   13.67264000
_cell_length_b   5.17335100
_cell_length_c   7.15740981
_cell_angle_alpha   81.07888093
_cell_angle_beta   90.00000000
_cell_angle_gamma   90.00000000
_symmetry_Int_Tables_number   1
_chemical_formula_structural   V(PO3)4
_chemical_formula_sum   'V2 P8 O24'
_cell_volume   500.14325135
_cell_formula_units_Z   2
loop_
 _symmetry_equiv_pos_site_id
 _symmetry_equiv_pos_as_xyz
  1  'x, y, z'
loop_
 _atom_site_type_symbol
 _atom_site_label
 _atom_site_symmetry_multiplicity
 _atom_site_fract_x
 _atom_site_fract_y
 _atom_site_fract_z
 _atom_site_occupancy
  V  V0  1  0.73546700  0.51358700  0.49503800  1
  V  V1  1  0.23546700  0.48641300  0.50496200  1
  P  P2  1  0.66903900  0.86177000  0.09512800  1
  P  P3  1  0.16903900  0.13823000  0.90487200  1
  P  P4  1  0.87588100  0.99755300  0.54620300  1
  P  P5  1  0.59691400  0.02775500  0.44861400  1
  P  P6  1  0.37588100  0.00244700  0.45379700  1
  P  P7  1  0.82505200  0.22250400  0.88824900  1
  P  P8  1  0.32505200  0.77749600  0.11175100  1
  P  P9  1  0.09691400  0.97224500  0.55138600  1
  O  O10  1  0.86438200  0.99649900  0.76775000  1
  O  O11  1  0.66323700  0.81791700  0.54999100  1
  O  O12  1  0.36438200  0.00350100  0.23225000  1
  O  O13  1  0.10464000  0.96826000  0.77400100  1
  O  O14  1  0.25079400  0.61831200  0.24943700  1
  O  O15  1  0.85790800  0.72596300  0.50007800  1
  O  O16  1  0.11333100  0.19865100  0.06590100  1
  O  O17  1  0.81641100  0.21714200  0.43686600  1
  O  O18  1  0.61144900  0.29960900  0.49505800  1
  O  O19  1  0.26203100  0.94792100  0.95094900  1
  O  O20  1  0.98790100  0.06628500  0.50108800  1
  O  O21  1  0.40256300  0.63323200  0.03298800  1
  O  O22  1  0.90256300  0.36676800  0.96701200  1
  O  O23  1  0.35790800  0.27403700  0.49992200  1
  O  O24  1  0.48790100  0.93371500  0.49891200  1
  O  O25  1  0.76203100  0.05207900  0.04905100  1
  O  O26  1  0.71394600  0.63443700  0.23703600  1
  O  O27  1  0.16323700  0.18208300  0.45000900  1
  O  O28  1  0.11144900  0.70039100  0.50494200  1
  O  O29  1  0.21394600  0.36556300  0.76296400  1
  O  O30  1  0.31641100  0.78285800  0.56313400  1
  O  O31  1  0.61333100  0.80134900  0.93409900  1
  O  O32  1  0.75079400  0.38168800  0.75056300  1
  O  O33  1  0.60464000  0.03174000  0.22599900  1
