# generated using pymatgen
data_Ag2W2O7
_symmetry_space_group_name_H-M   'P 1'
_cell_length_a   6.21084500
_cell_length_b   7.23679513
_cell_length_c   7.80894544
_cell_angle_alpha   106.89774453
_cell_angle_beta   87.43817087
_cell_angle_gamma   103.06286967
_symmetry_Int_Tables_number   1
_chemical_formula_structural   Ag2W2O7
_chemical_formula_sum   'Ag4 W4 O14'
_cell_volume   327.05837850
_cell_formula_units_Z   2
loop_
 _symmetry_equiv_pos_site_id
 _symmetry_equiv_pos_as_xyz
  1  'x, y, z'
loop_
 _atom_site_type_symbol
 _atom_site_label
 _atom_site_symmetry_multiplicity
 _atom_site_fract_x
 _atom_site_fract_y
 _atom_site_fract_z
 _atom_site_occupancy
  Ag  Ag0  1  0.76365400  0.70556400  0.05970000  1
  Ag  Ag1  1  0.29949000  0.73034300  0.26267800  1
  Ag  Ag2  1  0.70051000  0.26965700  0.73732200  1
  Ag  Ag3  1  0.23634600  0.29443600  0.94030000  1
  W  W4  1  0.72514300  0.27341800  0.22442900  1
  W  W5  1  0.27485700  0.72658200  0.77557100  1
  W  W6  1  0.72575800  0.70182900  0.55864300  1
  W  W7  1  0.27424200  0.29817100  0.44135700  1
  O  O8  1  0.78989600  0.60107800  0.31494300  1
  O  O9  1  0.39422600  0.64213400  0.50266300  1
  O  O10  1  0.82418400  0.29656900  0.00749000  1
  O  O11  1  0.41745700  0.29794200  0.20180700  1
  O  O12  1  0.60577400  0.35786600  0.49733700  1
  O  O13  1  0.21010400  0.39892200  0.68505700  1
  O  O14  1  0.01394300  0.32429700  0.34087100  1
  O  O15  1  0.66350900  0.01235300  0.19300100  1
  O  O16  1  0.17581600  0.70343100  0.99251000  1
  O  O17  1  0.98605700  0.67570300  0.65912900  1
  O  O18  1  0.21984900  0.04266000  0.41683900  1
  O  O19  1  0.33649100  0.98764700  0.80699900  1
  O  O20  1  0.58254300  0.70205800  0.79819300  1
  O  O21  1  0.78015100  0.95734000  0.58316100  1
