# generated using pymatgen
data_MgSiO3
_symmetry_space_group_name_H-M   'P 1'
_cell_length_a   8.99049200
_cell_length_b   5.19804500
_cell_length_c   18.80092451
_cell_angle_alpha   83.89327501
_cell_angle_beta   90.00000000
_cell_angle_gamma   90.00000000
_symmetry_Int_Tables_number   1
_chemical_formula_structural   MgSiO3
_chemical_formula_sum   'Mg16 Si16 O48'
_cell_volume   873.63748774
_cell_formula_units_Z   16
loop_
 _symmetry_equiv_pos_site_id
 _symmetry_equiv_pos_as_xyz
  1  'x, y, z'
loop_
 _atom_site_type_symbol
 _atom_site_label
 _atom_site_symmetry_multiplicity
 _atom_site_fract_x
 _atom_site_fract_y
 _atom_site_fract_z
 _atom_site_occupancy
  Mg  Mg0  1  0.59870100  0.75000000  0.50000000  1
  Mg  Mg1  1  0.40129900  0.25000000  0.50000000  1
  Mg  Mg2  1  0.76068200  0.25000000  0.50000000  1
  Mg  Mg3  1  0.23931800  0.75000000  0.50000000  1
  Mg  Mg4  1  0.09921000  0.60588000  0.75085900  1
  Mg  Mg5  1  0.09921000  0.89412000  0.24914100  1
  Mg  Mg6  1  0.90079000  0.39412000  0.24914100  1
  Mg  Mg7  1  0.90079000  0.10588000  0.75085900  1
  Mg  Mg8  1  0.73934100  0.60875700  0.75372600  1
  Mg  Mg9  1  0.73934100  0.89124300  0.24627400  1
  Mg  Mg10  1  0.26065900  0.39124300  0.24627400  1
  Mg  Mg11  1  0.26065900  0.10875700  0.75372600  1
  Mg  Mg12  1  0.40154500  0.25000000  0.00000000  1
  Mg  Mg13  1  0.59845500  0.75000000  0.00000000  1
  Mg  Mg14  1  0.76158400  0.25000000  0.00000000  1
  Mg  Mg15  1  0.23841600  0.75000000  0.00000000  1
  Si  Si16  1  0.09048600  0.49794900  0.39456500  1
  Si  Si17  1  0.09048600  0.00205100  0.60543500  1
  Si  Si18  1  0.90951400  0.50205100  0.60543500  1
  Si  Si19  1  0.90951400  0.99794900  0.39456500  1
  Si  Si20  1  0.59052800  0.46311000  0.35219800  1
  Si  Si21  1  0.59052800  0.03689000  0.64780200  1
  Si  Si22  1  0.40947200  0.53689000  0.64780200  1
  Si  Si23  1  0.40947200  0.96311000  0.35219800  1
  Si  Si24  1  0.08875400  0.21359800  0.89980900  1
  Si  Si25  1  0.08875400  0.28640200  0.10019100  1
  Si  Si26  1  0.91124600  0.78640200  0.10019100  1
  Si  Si27  1  0.91124600  0.71359800  0.89980900  1
  Si  Si28  1  0.41125900  0.64244300  0.85201500  1
  Si  Si29  1  0.41125900  0.85755700  0.14798500  1
  Si  Si30  1  0.58874100  0.35755700  0.14798500  1
  Si  Si31  1  0.58874100  0.14244300  0.85201500  1
  O  O32  1  0.09213400  0.53316600  0.30701200  1
  O  O33  1  0.09213400  0.96683400  0.69298800  1
  O  O34  1  0.90786600  0.46683400  0.69298800  1
  O  O35  1  0.90786600  0.03316600  0.30701200  1
  O  O36  1  0.24202900  0.45004600  0.43877600  1
  O  O37  1  0.24202900  0.04995400  0.56122400  1
  O  O38  1  0.75797100  0.54995400  0.56122400  1
  O  O39  1  0.75797100  0.95004600  0.43877600  1
  O  O40  1  0.96204900  0.28046500  0.42221200  1
  O  O41  1  0.96204900  0.21953500  0.57778800  1
  O  O42  1  0.03795100  0.71953500  0.57778800  1
  O  O43  1  0.03795100  0.78046500  0.42221200  1
  O  O44  1  0.59260000  0.43792300  0.43973300  1
  O  O45  1  0.59260000  0.06207700  0.56026700  1
  O  O46  1  0.40740000  0.56207700  0.56026700  1
  O  O47  1  0.40740000  0.93792300  0.43973300  1
  O  O48  1  0.74160100  0.55837800  0.31073300  1
  O  O49  1  0.74160100  0.94162200  0.68926700  1
  O  O50  1  0.25839900  0.44162200  0.68926700  1
  O  O51  1  0.25839900  0.05837800  0.31073300  1
  O  O52  1  0.46105500  0.68265700  0.32441100  1
  O  O53  1  0.46105500  0.81734300  0.67558900  1
  O  O54  1  0.53894500  0.31734300  0.67558900  1
  O  O55  1  0.53894500  0.18265700  0.32441100  1
  O  O56  1  0.09105600  0.24941800  0.81220700  1
  O  O57  1  0.09105600  0.25058200  0.18779300  1
  O  O58  1  0.90894400  0.75058200  0.18779300  1
  O  O59  1  0.90894400  0.74941800  0.81220700  1
  O  O60  1  0.23548000  0.09563400  0.94022900  1
  O  O61  1  0.23548000  0.40436600  0.05977100  1
  O  O62  1  0.76452000  0.90436600  0.05977100  1
  O  O63  1  0.76452000  0.59563400  0.94022900  1
  O  O64  1  0.05026100  0.50668300  0.92594100  1
  O  O65  1  0.05026100  0.99331700  0.07405900  1
  O  O66  1  0.94973900  0.49331700  0.07405900  1
  O  O67  1  0.94973900  0.00668300  0.92594100  1
  O  O68  1  0.40860700  0.60845600  0.93985700  1
  O  O69  1  0.40860700  0.89154400  0.06014300  1
  O  O70  1  0.59139300  0.39154400  0.06014300  1
  O  O71  1  0.59139300  0.10845600  0.93985700  1
  O  O72  1  0.26533900  0.75962000  0.81091900  1
  O  O73  1  0.26533900  0.74038000  0.18908100  1
  O  O74  1  0.73466100  0.24038000  0.18908100  1
  O  O75  1  0.73466100  0.25962000  0.81091900  1
  O  O76  1  0.44918900  0.34877700  0.82610800  1
  O  O77  1  0.44918900  0.15122300  0.17389200  1
  O  O78  1  0.55081100  0.65122300  0.17389200  1
  O  O79  1  0.55081100  0.84877700  0.82610800  1
