# generated using pymatgen
data_B36O5
_symmetry_space_group_name_H-M   'P 1'
_cell_length_a   7.41053200
_cell_length_b   7.41035387
_cell_length_c   11.59296564
_cell_angle_alpha   87.34021340
_cell_angle_beta   73.46900386
_cell_angle_gamma   87.94909739
_symmetry_Int_Tables_number   1
_chemical_formula_structural   B36O5
_chemical_formula_sum   'B72 O10'
_cell_volume   609.48253476
_cell_formula_units_Z   2
loop_
 _symmetry_equiv_pos_site_id
 _symmetry_equiv_pos_as_xyz
  1  'x, y, z'
loop_
 _atom_site_type_symbol
 _atom_site_label
 _atom_site_symmetry_multiplicity
 _atom_site_fract_x
 _atom_site_fract_y
 _atom_site_fract_z
 _atom_site_occupancy
  B  B0  1  0.61401500  0.93859100  0.37389400  1
  B  B1  1  0.66936000  0.16748000  0.33140500  1
  B  B2  1  0.21545200  0.16526300  0.55622900  1
  B  B3  1  0.28587400  0.28391600  0.28589700  1
  B  B4  1  0.45985000  0.43350600  0.19814700  1
  B  B5  1  0.54015000  0.56649400  0.80185300  1
  B  B6  1  0.11175100  0.43496600  0.37236100  1
  B  B7  1  0.38776300  0.66402800  0.22066000  1
  B  B8  1  0.22081300  0.49642600  0.22007700  1
  B  B9  1  0.46104200  0.79962100  0.95888700  1
  B  B10  1  0.63975700  0.93060800  0.85920000  1
  B  B11  1  0.16719000  0.66466700  0.33118800  1
  B  B12  1  0.33064000  0.83252000  0.66859500  1
  B  B13  1  0.27898100  0.94053500  0.04114800  1
  B  B14  1  0.55740800  0.16549300  0.88571200  1
  B  B15  1  0.39172400  0.99973500  0.88571900  1
  B  B16  1  0.72349400  0.67511100  0.55707700  1
  B  B17  1  0.27481900  0.99790600  0.77917200  1
  B  B18  1  0.62531000  0.30184600  0.62638700  1
  B  B19  1  0.38598500  0.06140900  0.62610600  1
  B  B20  1  0.33286800  0.16787500  0.99854500  1
  B  B21  1  0.79591700  0.79936600  0.29181900  1
  B  B22  1  0.96714900  0.94137700  0.19797600  1
  B  B23  1  0.49825800  0.32541100  0.33257000  1
  B  B24  1  0.03285100  0.05862300  0.80202400  1
  B  B25  1  0.20408300  0.20063400  0.70818100  1
  B  B26  1  0.44518200  0.44233300  0.70807500  1
  B  B27  1  0.55535600  0.50581000  0.55537800  1
  B  B28  1  0.72518100  0.00209400  0.22082800  1
  B  B29  1  0.89330200  0.16951700  0.22027000  1
  B  B30  1  0.44464400  0.49419000  0.44462200  1
  B  B31  1  0.27650600  0.32488900  0.44292300  1
  B  B32  1  0.55481800  0.55766700  0.29192500  1
  B  B33  1  0.50174200  0.67458900  0.66743000  1
  B  B34  1  0.95879500  0.29848200  0.95897900  1
  B  B35  1  0.12833800  0.43881300  0.86566300  1
  B  B36  1  0.20496800  0.55766400  0.46656800  1
  B  B37  1  0.37469000  0.69815400  0.37361300  1
  B  B38  1  0.83281000  0.33533300  0.66881200  1
  B  B39  1  0.77803600  0.43825000  0.04103200  1
  B  B40  1  0.05387200  0.66708600  0.88919700  1
  B  B41  1  0.88825900  0.50151500  0.88920800  1
  B  B42  1  0.60827600  0.00026500  0.11428100  1
  B  B43  1  0.44259200  0.83450700  0.11428800  1
  B  B44  1  0.77918700  0.50357400  0.77992300  1
  B  B45  1  0.12150500  0.79695400  0.62734100  1
  B  B46  1  0.88824900  0.56503400  0.62763900  1
  B  B47  1  0.29208900  0.93716800  0.53335600  1
  B  B48  1  0.83239400  0.66747100  0.00027800  1
  B  B49  1  0.36024300  0.06939200  0.14080000  1
  B  B50  1  0.53895800  0.20037900  0.04111300  1
  B  B51  1  0.00846800  0.83554400  0.33182700  1
  B  B52  1  0.71412600  0.71608400  0.71410300  1
  B  B53  1  0.92715600  0.92846200  0.71409000  1
  B  B54  1  0.04761700  0.99848100  0.55794900  1
  B  B55  1  0.61223700  0.33597200  0.77934000  1
  B  B56  1  0.95238300  0.00151900  0.44205100  1
  B  B57  1  0.78454800  0.83473700  0.44377100  1
  B  B58  1  0.07284400  0.07153800  0.28591000  1
  B  B59  1  0.99153200  0.16445600  0.66817300  1
  B  B60  1  0.16760600  0.33252900  0.99972200  1
  B  B61  1  0.70791100  0.06283200  0.46664400  1
  B  B62  1  0.87849500  0.20304600  0.37265900  1
  B  B63  1  0.11174100  0.49848500  0.11079200  1
  B  B64  1  0.94612800  0.33291400  0.11080300  1
  B  B65  1  0.22196400  0.56175000  0.95896800  1
  B  B66  1  0.79503200  0.44233600  0.53343200  1
  B  B67  1  0.87166200  0.56118700  0.13433700  1
  B  B68  1  0.04120500  0.70151800  0.04102100  1
  B  B69  1  0.10669800  0.83048300  0.77973000  1
  B  B70  1  0.66713200  0.83212500  0.00145500  1
  B  B71  1  0.72101900  0.05946500  0.95885200  1
  O  O72  1  0.58087900  0.37752000  0.07978500  1
  O  O73  1  0.41912100  0.62248000  0.92021500  1
  O  O74  1  0.58542200  0.12306700  0.58577500  1
  O  O75  1  0.08239600  0.87949100  0.07960300  1
  O  O76  1  0.24700400  0.37947800  0.74720200  1
  O  O77  1  0.91760400  0.12050900  0.92039700  1
  O  O78  1  0.41457800  0.87693300  0.41422500  1
  O  O79  1  0.08645200  0.61957500  0.58524500  1
  O  O80  1  0.91354800  0.38042500  0.41475500  1
  O  O81  1  0.75299600  0.62052200  0.25279800  1
