# generated using pymatgen
data_H2O
_symmetry_space_group_name_H-M   'P 1'
_cell_length_a   3.41382100
_cell_length_b   3.41382100
_cell_length_c   3.38122800
_cell_angle_alpha   90.00000000
_cell_angle_beta   90.00000000
_cell_angle_gamma   90.00000000
_symmetry_Int_Tables_number   1
_chemical_formula_structural   H2O
_chemical_formula_sum   'H4 O2'
_cell_volume   39.40541884
_cell_formula_units_Z   2
loop_
 _symmetry_equiv_pos_site_id
 _symmetry_equiv_pos_as_xyz
  1  'x, y, z'
loop_
 _atom_site_type_symbol
 _atom_site_label
 _atom_site_symmetry_multiplicity
 _atom_site_fract_x
 _atom_site_fract_y
 _atom_site_fract_z
 _atom_site_occupancy
  H  H0  1  0.33694300  0.33694300  0.32740600  1
  H  H1  1  0.66305700  0.66305700  0.32740600  1
  H  H2  1  0.83694300  0.16305700  0.82740600  1
  H  H3  1  0.16305700  0.83694300  0.82740600  1
  O  O4  1  0.00000000  0.00000000  0.00518800  1
  O  O5  1  0.50000000  0.50000000  0.50518800  1
