# generated using pymatgen
data_LaF3
_symmetry_space_group_name_H-M   'P 1'
_cell_length_a   7.24439603
_cell_length_b   7.24439603
_cell_length_c   7.39103300
_cell_angle_alpha   90.00000000
_cell_angle_beta   90.00000000
_cell_angle_gamma   120.00000023
_symmetry_Int_Tables_number   1
_chemical_formula_structural   LaF3
_chemical_formula_sum   'La6 F18'
_cell_volume   335.92330870
_cell_formula_units_Z   6
loop_
 _symmetry_equiv_pos_site_id
 _symmetry_equiv_pos_as_xyz
  1  'x, y, z'
loop_
 _atom_site_type_symbol
 _atom_site_label
 _atom_site_symmetry_multiplicity
 _atom_site_fract_x
 _atom_site_fract_y
 _atom_site_fract_z
 _atom_site_occupancy
  La  La0  1  0.32632500  0.00000000  0.75095500  1
  La  La1  1  0.32632500  0.32632500  0.25095500  1
  La  La2  1  0.00000000  0.67367500  0.25095500  1
  La  La3  1  0.00000000  0.32632500  0.75095500  1
  La  La4  1  0.67367500  0.67367500  0.75095500  1
  La  La5  1  0.67367500  0.00000000  0.25095500  1
  F  F6  1  0.66666700  0.33333300  0.20895100  1
  F  F7  1  0.33333300  0.66666700  0.70895100  1
  F  F8  1  0.66666700  0.33333300  0.70895100  1
  F  F9  1  0.33333300  0.66666700  0.20895100  1
  F  F10  1  0.00000000  0.00000000  0.82074300  1
  F  F11  1  0.00000000  0.00000000  0.32074300  1
  F  F12  1  0.27735000  0.00000000  0.08196900  1
  F  F13  1  0.27735000  0.27735000  0.58196900  1
  F  F14  1  0.00000000  0.72265000  0.58196900  1
  F  F15  1  0.00000000  0.27735000  0.08196900  1
  F  F16  1  0.72265000  0.72265000  0.08196900  1
  F  F17  1  0.72265000  0.00000000  0.58196900  1
  F  F18  1  0.37952000  0.00000000  0.42232800  1
  F  F19  1  0.37952000  0.37952000  0.92232800  1
  F  F20  1  0.00000000  0.62048000  0.92232800  1
  F  F21  1  0.00000000  0.37952000  0.42232800  1
  F  F22  1  0.62048000  0.62048000  0.42232800  1
  F  F23  1  0.62048000  0.00000000  0.92232800  1
