# generated using pymatgen
data_Cr2HO4
_symmetry_space_group_name_H-M   'P 1'
_cell_length_a   3.02202300
_cell_length_b   4.81184300
_cell_length_c   5.23036546
_cell_angle_alpha   68.97184027
_cell_angle_beta   90.00000000
_cell_angle_gamma   90.00000000
_symmetry_Int_Tables_number   1
_chemical_formula_structural   Cr2HO4
_chemical_formula_sum   'Cr2 H1 O4'
_cell_volume   70.99225843
_cell_formula_units_Z   1
loop_
 _symmetry_equiv_pos_site_id
 _symmetry_equiv_pos_as_xyz
  1  'x, y, z'
loop_
 _atom_site_type_symbol
 _atom_site_label
 _atom_site_symmetry_multiplicity
 _atom_site_fract_x
 _atom_site_fract_y
 _atom_site_fract_z
 _atom_site_occupancy
  Cr  Cr0  1  0.00000000  0.00000000  0.00000000  1
  Cr  Cr1  1  0.50000000  0.00000000  0.50000000  1
  H  H2  1  0.50000000  0.50000000  0.00000000  1
  O  O3  1  0.00000000  0.19837500  0.60454100  1
  O  O4  1  0.50000000  0.77022300  0.91225400  1
  O  O5  1  0.50000000  0.22977700  0.08774600  1
  O  O6  1  0.00000000  0.80162500  0.39545900  1
