# generated using pymatgen
data_KNO3
_symmetry_space_group_name_H-M   'P 1'
_cell_length_a   5.36463900
_cell_length_b   4.68324300
_cell_length_c   14.27501627
_cell_angle_alpha   71.74677714
_cell_angle_beta   90.00000000
_cell_angle_gamma   90.00000000
_symmetry_Int_Tables_number   1
_chemical_formula_structural   KNO3
_chemical_formula_sum   'K4 N4 O12'
_cell_volume   340.59776154
_cell_formula_units_Z   4
loop_
 _symmetry_equiv_pos_site_id
 _symmetry_equiv_pos_as_xyz
  1  'x, y, z'
loop_
 _atom_site_type_symbol
 _atom_site_label
 _atom_site_symmetry_multiplicity
 _atom_site_fract_x
 _atom_site_fract_y
 _atom_site_fract_z
 _atom_site_occupancy
  K  K0  1  0.90146400  0.60001000  0.62310500  1
  K  K1  1  0.40146400  0.39999000  0.87689500  1
  K  K2  1  0.09853600  0.39999000  0.37689500  1
  K  K3  1  0.59853600  0.60001000  0.12310500  1
  N  N4  1  0.40440700  0.01244700  0.61957000  1
  N  N5  1  0.90440700  0.98755300  0.88043000  1
  N  N6  1  0.59559300  0.98755300  0.38043000  1
  N  N7  1  0.09559300  0.01244700  0.11957000  1
  O  O8  1  0.20136700  0.14425800  0.58563200  1
  O  O9  1  0.70136700  0.85574200  0.91436800  1
  O  O10  1  0.79863300  0.85574200  0.41436800  1
  O  O11  1  0.29863300  0.14425800  0.08563200  1
  O  O12  1  0.61162200  0.14145700  0.59492900  1
  O  O13  1  0.11162200  0.85854300  0.90507100  1
  O  O14  1  0.38837800  0.85854300  0.40507100  1
  O  O15  1  0.88837800  0.14145700  0.09492900  1
  O  O16  1  0.89775700  0.25648700  0.82195200  1
  O  O17  1  0.39775700  0.74351300  0.67804800  1
  O  O18  1  0.10224300  0.74351300  0.17804800  1
  O  O19  1  0.60224300  0.25648700  0.32195200  1
