# generated using pymatgen
data_Ca(BO2)2
_symmetry_space_group_name_H-M   'P 1'
_cell_length_a   4.33157000
_cell_length_b   6.35395700
_cell_length_c   11.64533300
_cell_angle_alpha   90.00000000
_cell_angle_beta   90.00000000
_cell_angle_gamma   90.00000000
_symmetry_Int_Tables_number   1
_chemical_formula_structural   Ca(BO2)2
_chemical_formula_sum   'Ca4 B8 O16'
_cell_volume   320.50995292
_cell_formula_units_Z   4
loop_
 _symmetry_equiv_pos_site_id
 _symmetry_equiv_pos_as_xyz
  1  'x, y, z'
loop_
 _atom_site_type_symbol
 _atom_site_label
 _atom_site_symmetry_multiplicity
 _atom_site_fract_x
 _atom_site_fract_y
 _atom_site_fract_z
 _atom_site_occupancy
  Ca  Ca0  1  0.78048000  0.25000000  0.50000000  1
  Ca  Ca1  1  0.71952000  0.75000000  0.00000000  1
  Ca  Ca2  1  0.21952000  0.75000000  0.50000000  1
  Ca  Ca3  1  0.28048000  0.25000000  0.00000000  1
  B  B4  1  0.32638100  0.12459500  0.30767400  1
  B  B5  1  0.32638100  0.37540500  0.69232600  1
  B  B6  1  0.17361900  0.62459500  0.19232600  1
  B  B7  1  0.17361900  0.87540500  0.80767400  1
  B  B8  1  0.82638100  0.12459500  0.19232600  1
  B  B9  1  0.82638100  0.37540500  0.80767400  1
  B  B10  1  0.67361900  0.62459500  0.30767400  1
  B  B11  1  0.67361900  0.87540500  0.69232600  1
  O  O12  1  0.85179000  0.85114000  0.79179900  1
  O  O13  1  0.85179000  0.64886000  0.20820100  1
  O  O14  1  0.64821000  0.35114000  0.70820100  1
  O  O15  1  0.64821000  0.14886000  0.29179900  1
  O  O16  1  0.72691600  0.08717300  0.08599000  1
  O  O17  1  0.72691600  0.41282700  0.91401000  1
  O  O18  1  0.77308400  0.58717300  0.41401000  1
  O  O19  1  0.77308400  0.91282700  0.58599000  1
  O  O20  1  0.27308400  0.91282700  0.91401000  1
  O  O21  1  0.27308400  0.58717300  0.08599000  1
  O  O22  1  0.22691600  0.41282700  0.58599000  1
  O  O23  1  0.22691600  0.08717300  0.41401000  1
  O  O24  1  0.14821000  0.14886000  0.20820100  1
  O  O25  1  0.14821000  0.35114000  0.79179900  1
  O  O26  1  0.35179000  0.64886000  0.29179900  1
  O  O27  1  0.35179000  0.85114000  0.70820100  1
