# generated using pymatgen
data_RbMgPO4
_symmetry_space_group_name_H-M   'P 1'
_cell_length_a   5.40083100
_cell_length_b   9.45383600
_cell_length_c   26.96596400
_cell_angle_alpha   90.00000000
_cell_angle_beta   90.00000000
_cell_angle_gamma   90.00000000
_symmetry_Int_Tables_number   1
_chemical_formula_structural   RbMgPO4
_chemical_formula_sum   'Rb12 Mg12 P12 O48'
_cell_volume   1376.84357501
_cell_formula_units_Z   12
loop_
 _symmetry_equiv_pos_site_id
 _symmetry_equiv_pos_as_xyz
  1  'x, y, z'
loop_
 _atom_site_type_symbol
 _atom_site_label
 _atom_site_symmetry_multiplicity
 _atom_site_fract_x
 _atom_site_fract_y
 _atom_site_fract_z
 _atom_site_occupancy
  Rb  Rb0  1  0.24768500  0.20173600  0.50102000  1
  Rb  Rb1  1  0.74768500  0.79826400  0.49898000  1
  Rb  Rb2  1  0.74768500  0.70173600  0.99898000  1
  Rb  Rb3  1  0.24768500  0.29826400  0.00102000  1
  Rb  Rb4  1  0.23962100  0.30964800  0.66501300  1
  Rb  Rb5  1  0.73962100  0.69035200  0.33498700  1
  Rb  Rb6  1  0.73962100  0.80964800  0.83498700  1
  Rb  Rb7  1  0.23962100  0.19035200  0.16501300  1
  Rb  Rb8  1  0.71393000  0.68984500  0.67407300  1
  Rb  Rb9  1  0.21393000  0.31015500  0.32592700  1
  Rb  Rb10  1  0.21393000  0.18984500  0.82592700  1
  Rb  Rb11  1  0.71393000  0.81015500  0.17407300  1
  Mg  Mg12  1  0.23435700  0.91329600  0.60066000  1
  Mg  Mg13  1  0.73435700  0.08670400  0.39934000  1
  Mg  Mg14  1  0.73435700  0.41329600  0.89934000  1
  Mg  Mg15  1  0.23435700  0.58670400  0.10066000  1
  Mg  Mg16  1  0.24721400  0.59412000  0.78194700  1
  Mg  Mg17  1  0.74721400  0.40588000  0.21805300  1
  Mg  Mg18  1  0.74721400  0.09412000  0.71805300  1
  Mg  Mg19  1  0.24721400  0.90588000  0.28194700  1
  Mg  Mg20  1  0.76566600  0.44234700  0.55198100  1
  Mg  Mg21  1  0.26566600  0.55765300  0.44801900  1
  Mg  Mg22  1  0.26566600  0.94234700  0.94801900  1
  Mg  Mg23  1  0.76566600  0.05765300  0.05198100  1
  P  P24  1  0.74678800  0.10306600  0.59181100  1
  P  P25  1  0.24678800  0.89693400  0.40818900  1
  P  P26  1  0.24678800  0.60306600  0.90818900  1
  P  P27  1  0.74678800  0.39693400  0.09181100  1
  P  P28  1  0.74140500  0.41046200  0.77309700  1
  P  P29  1  0.24140500  0.58953800  0.22690300  1
  P  P30  1  0.24140500  0.91046200  0.72690300  1
  P  P31  1  0.74140500  0.08953800  0.27309700  1
  P  P32  1  0.22008800  0.57388800  0.56958100  1
  P  P33  1  0.72008800  0.42611200  0.43041900  1
  P  P34  1  0.72008800  0.07388800  0.93041900  1
  P  P35  1  0.22008800  0.92611200  0.06958100  1
  O  O36  1  0.80596400  0.23869500  0.56205200  1
  O  O37  1  0.30596400  0.76130500  0.43794800  1
  O  O38  1  0.30596400  0.73869500  0.93794800  1
  O  O39  1  0.80596400  0.26130500  0.06205200  1
  O  O40  1  0.83610800  0.28027100  0.74384200  1
  O  O41  1  0.33610800  0.71972900  0.25615800  1
  O  O42  1  0.33610800  0.78027100  0.75615800  1
  O  O43  1  0.83610800  0.21972900  0.24384200  1
  O  O44  1  0.28917600  0.73231800  0.56766800  1
  O  O45  1  0.78917600  0.26768200  0.43233200  1
  O  O46  1  0.78917600  0.23231800  0.93233200  1
  O  O47  1  0.28917600  0.76768200  0.06766800  1
  O  O48  1  0.78526700  0.13070100  0.64790600  1
  O  O49  1  0.28526700  0.86929900  0.35209400  1
  O  O50  1  0.28526700  0.63070100  0.85209400  1
  O  O51  1  0.78526700  0.36929900  0.14790600  1
  O  O52  1  0.74404000  0.37274300  0.82893900  1
  O  O53  1  0.24404000  0.62725700  0.17106100  1
  O  O54  1  0.24404000  0.87274300  0.67106100  1
  O  O55  1  0.74404000  0.12725700  0.32893900  1
  O  O56  1  0.12226000  0.52367100  0.51728200  1
  O  O57  1  0.62226000  0.47632900  0.48271800  1
  O  O58  1  0.62226000  0.02367100  0.98271800  1
  O  O59  1  0.12226000  0.97632900  0.01728200  1
  O  O60  1  0.92261600  0.98289300  0.57429000  1
  O  O61  1  0.42261600  0.01710700  0.42571000  1
  O  O62  1  0.42261600  0.48289300  0.92571000  1
  O  O63  1  0.92261600  0.51710700  0.07429000  1
  O  O64  1  0.91201100  0.53981400  0.76253700  1
  O  O65  1  0.41201100  0.46018600  0.23746300  1
  O  O66  1  0.41201100  0.03981400  0.73746300  1
  O  O67  1  0.91201100  0.96018600  0.26253700  1
  O  O68  1  0.44809300  0.48734500  0.58645600  1
  O  O69  1  0.94809300  0.51265500  0.41354400  1
  O  O70  1  0.94809300  0.98734500  0.91354400  1
  O  O71  1  0.44809300  0.01265500  0.08645600  1
  O  O72  1  0.47513900  0.05729900  0.58185000  1
  O  O73  1  0.97513900  0.94270100  0.41815000  1
  O  O74  1  0.97513900  0.55729900  0.91815000  1
  O  O75  1  0.47513900  0.44270100  0.08185000  1
  O  O76  1  0.47372100  0.44867500  0.75611100  1
  O  O77  1  0.97372100  0.55132500  0.24388900  1
  O  O78  1  0.97372100  0.94867500  0.74388900  1
  O  O79  1  0.47372100  0.05132500  0.25611100  1
  O  O80  1  0.99455000  0.54194700  0.60380000  1
  O  O81  1  0.49455000  0.45805300  0.39620000  1
  O  O82  1  0.49455000  0.04194700  0.89620000  1
  O  O83  1  0.99455000  0.95805300  0.10380000  1
