# generated using pymatgen
data_ErP5O14
_symmetry_space_group_name_H-M   'P 1'
_cell_length_a   8.79497600
_cell_length_b   9.15260200
_cell_length_c   12.76523300
_cell_angle_alpha   90.00000000
_cell_angle_beta   90.00000000
_cell_angle_gamma   90.00000000
_symmetry_Int_Tables_number   1
_chemical_formula_structural   ErP5O14
_chemical_formula_sum   'Er4 P20 O56'
_cell_volume   1027.56187483
_cell_formula_units_Z   4
loop_
 _symmetry_equiv_pos_site_id
 _symmetry_equiv_pos_as_xyz
  1  'x, y, z'
loop_
 _atom_site_type_symbol
 _atom_site_label
 _atom_site_symmetry_multiplicity
 _atom_site_fract_x
 _atom_site_fract_y
 _atom_site_fract_z
 _atom_site_occupancy
  Er  Er0  1  0.02119200  0.55483100  0.75000000  1
  Er  Er1  1  0.52119200  0.94516900  0.75000000  1
  Er  Er2  1  0.47880800  0.05483100  0.25000000  1
  Er  Er3  1  0.97880800  0.44516900  0.25000000  1
  P  P4  1  0.42616600  0.50312500  0.75000000  1
  P  P5  1  0.92616600  0.99687500  0.75000000  1
  P  P6  1  0.07383400  0.00312500  0.25000000  1
  P  P7  1  0.57383400  0.49687500  0.25000000  1
  P  P8  1  0.00925400  0.79499100  0.08122100  1
  P  P9  1  0.50925400  0.70500900  0.41877900  1
  P  P10  1  0.49074600  0.29499100  0.91877900  1
  P  P11  1  0.99074600  0.20500900  0.58122100  1
  P  P12  1  0.99074600  0.20500900  0.91877900  1
  P  P13  1  0.49074600  0.29499100  0.58122100  1
  P  P14  1  0.50925400  0.70500900  0.08122100  1
  P  P15  1  0.00925400  0.79499100  0.41877900  1
  P  P16  1  0.75744200  0.72750100  0.92885400  1
  P  P17  1  0.25744200  0.77249900  0.57114600  1
  P  P18  1  0.74255800  0.22750100  0.07114600  1
  P  P19  1  0.24255800  0.27249900  0.42885400  1
  P  P20  1  0.24255800  0.27249900  0.07114600  1
  P  P21  1  0.74255800  0.22750100  0.42885400  1
  P  P22  1  0.25744200  0.77249900  0.92885400  1
  P  P23  1  0.75744200  0.72750100  0.57114600  1
  O  O24  1  0.82956600  0.60591900  0.86978900  1
  O  O25  1  0.32956600  0.89408100  0.63021100  1
  O  O26  1  0.67043400  0.10591900  0.13021100  1
  O  O27  1  0.17043400  0.39408100  0.36978900  1
  O  O28  1  0.17043400  0.39408100  0.13021100  1
  O  O29  1  0.67043400  0.10591900  0.36978900  1
  O  O30  1  0.32956600  0.89408100  0.86978900  1
  O  O31  1  0.82956600  0.60591900  0.63021100  1
  O  O32  1  0.26894500  0.44052800  0.75000000  1
  O  O33  1  0.76894500  0.05947200  0.75000000  1
  O  O34  1  0.23105500  0.94052800  0.25000000  1
  O  O35  1  0.73105500  0.55947200  0.25000000  1
  O  O36  1  0.97620800  0.93089200  0.15311000  1
  O  O37  1  0.47620800  0.56910800  0.34689000  1
  O  O38  1  0.52379200  0.43089200  0.84689000  1
  O  O39  1  0.02379200  0.06910800  0.65311000  1
  O  O40  1  0.02379200  0.06910800  0.84689000  1
  O  O41  1  0.52379200  0.43089200  0.65311000  1
  O  O42  1  0.47620800  0.56910800  0.15311000  1
  O  O43  1  0.88531600  0.81893500  0.99371300  1
  O  O44  1  0.97620800  0.93089200  0.34689000  1
  O  O45  1  0.46127100  0.66122900  0.75000000  1
  O  O46  1  0.53872900  0.33877100  0.25000000  1
  O  O47  1  0.03872900  0.16122900  0.25000000  1
  O  O48  1  0.84198600  0.33882000  0.37833200  1
  O  O49  1  0.34198600  0.16118000  0.12166800  1
  O  O50  1  0.65801400  0.83882000  0.62166800  1
  O  O51  1  0.15801400  0.66118000  0.87833200  1
  O  O52  1  0.15801400  0.66118000  0.62166800  1
  O  O53  1  0.65801400  0.83882000  0.87833200  1
  O  O54  1  0.34198600  0.16118000  0.37833200  1
  O  O55  1  0.84198600  0.33882000  0.12166800  1
  O  O56  1  0.16342900  0.84304100  0.47352400  1
  O  O57  1  0.66342900  0.65695900  0.02647600  1
  O  O58  1  0.33657100  0.34304100  0.52647600  1
  O  O59  1  0.83657100  0.15695900  0.97352400  1
  O  O60  1  0.83657100  0.15695900  0.52647600  1
  O  O61  1  0.33657100  0.34304100  0.97352400  1
  O  O62  1  0.66342900  0.65695900  0.47352400  1
  O  O63  1  0.16342900  0.84304100  0.02647600  1
  O  O64  1  0.00907900  0.65167400  0.36569800  1
  O  O65  1  0.50907900  0.84832600  0.13430200  1
  O  O66  1  0.49092100  0.15167400  0.63430200  1
  O  O67  1  0.99092100  0.34832600  0.86569800  1
  O  O68  1  0.99092100  0.34832600  0.63430200  1
  O  O69  1  0.49092100  0.15167400  0.86569800  1
  O  O70  1  0.50907900  0.84832600  0.36569800  1
  O  O71  1  0.00907900  0.65167400  0.13430200  1
  O  O72  1  0.88531600  0.81893500  0.50628700  1
  O  O73  1  0.38531600  0.68106500  0.99371300  1
  O  O74  1  0.61468400  0.31893500  0.49371300  1
  O  O75  1  0.11468400  0.18106500  0.00628700  1
  O  O76  1  0.11468400  0.18106500  0.49371300  1
  O  O77  1  0.61468400  0.31893500  0.00628700  1
  O  O78  1  0.38531600  0.68106500  0.50628700  1
  O  O79  1  0.96127100  0.83877100  0.75000000  1
