# generated using pymatgen
data_Tb(CuSi)2
_symmetry_space_group_name_H-M   'P 1'
_cell_length_a   5.72366735
_cell_length_b   5.72366735
_cell_length_c   5.72366735
_cell_angle_alpha   139.33529756
_cell_angle_beta   139.33529756
_cell_angle_gamma   58.86395911
_symmetry_Int_Tables_number   1
_chemical_formula_structural   Tb(CuSi)2
_chemical_formula_sum   'Tb1 Cu2 Si2'
_cell_volume   78.86671600
_cell_formula_units_Z   1
loop_
 _symmetry_equiv_pos_site_id
 _symmetry_equiv_pos_as_xyz
  1  'x, y, z'
loop_
 _atom_site_type_symbol
 _atom_site_label
 _atom_site_symmetry_multiplicity
 _atom_site_fract_x
 _atom_site_fract_y
 _atom_site_fract_z
 _atom_site_occupancy
  Tb  Tb0  1  0.00000000  0.00000000  0.00000000  1
  Cu  Cu1  1  0.75000000  0.25000000  0.50000000  1
  Cu  Cu2  1  0.25000000  0.75000000  0.50000000  1
  Si  Si3  1  0.61799000  0.61799000  0.00000000  1
  Si  Si4  1  0.38201000  0.38201000  0.00000000  1
