# generated using pymatgen
data_Zr4N2O5
_symmetry_space_group_name_H-M   'P 1'
_cell_length_a   8.89590800
_cell_length_b   8.89653060
_cell_length_c   8.90680810
_cell_angle_alpha   109.37363165
_cell_angle_beta   109.36763904
_cell_angle_gamma   109.58284745
_symmetry_Int_Tables_number   1
_chemical_formula_structural   Zr4N2O5
_chemical_formula_sum   'Zr16 N8 O20'
_cell_volume   543.23617229
_cell_formula_units_Z   4
loop_
 _symmetry_equiv_pos_site_id
 _symmetry_equiv_pos_as_xyz
  1  'x, y, z'
loop_
 _atom_site_type_symbol
 _atom_site_label
 _atom_site_symmetry_multiplicity
 _atom_site_fract_x
 _atom_site_fract_y
 _atom_site_fract_z
 _atom_site_occupancy
  Zr  Zr0  1  0.21733600  0.00054600  0.72996500  1
  Zr  Zr1  1  0.71500700  0.21257300  0.96043300  1
  Zr  Zr2  1  0.96436200  0.46519300  0.50033700  1
  Zr  Zr3  1  0.47415600  0.20881300  0.20593100  1
  Zr  Zr4  1  0.20075100  0.24341800  0.49941300  1
  Zr  Zr5  1  0.00419700  0.00556600  0.00003400  1
  Zr  Zr6  1  0.01411900  0.27486100  0.79730900  1
  Zr  Zr7  1  0.77234500  0.51214300  0.79517500  1
  Zr  Zr8  1  0.50147500  0.72065800  0.72434800  1
  Zr  Zr9  1  0.74283500  0.69886600  0.49930800  1
  Zr  Zr10  1  0.50867800  0.49395800  0.00065200  1
  Zr  Zr11  1  0.27071600  0.48707400  0.26630500  1
  Zr  Zr12  1  0.98804000  0.77222700  0.26980000  1
  Zr  Zr13  1  0.25411800  0.75983400  0.04575400  1
  Zr  Zr14  1  0.71581700  0.98101100  0.21230200  1
  Zr  Zr15  1  0.45415800  0.95527000  0.49386000  1
  N  N16  1  0.25008700  0.02273400  0.50061900  1
  N  N17  1  0.21398900  0.49811000  0.50194600  1
  N  N18  1  0.76465300  0.49575700  0.03044800  1
  N  N19  1  0.99668800  0.26282000  0.02892200  1
  N  N20  1  0.23007300  0.96550200  0.96681000  1
  N  N21  1  0.99541900  0.71315200  0.49902000  1
  N  N22  1  0.50133800  0.99902800  0.28194400  1
  N  N23  1  0.52132300  0.74821000  0.50027800  1
  O  O24  1  0.27297400  0.23863500  0.27660000  1
  O  O25  1  0.97641700  0.00618300  0.24028600  1
  O  O26  1  0.71689300  0.21714000  0.71624700  1
  O  O27  1  0.93896200  0.20051000  0.49876800  1
  O  O28  1  0.70277200  0.44106800  0.50241900  1
  O  O29  1  0.49911500  0.46590200  0.72834400  1
  O  O30  1  0.47744800  0.23127500  0.97132000  1
  O  O31  1  0.75137300  0.25200800  0.22944800  1
  O  O32  1  0.50563400  0.47361500  0.23934000  1
  O  O33  1  0.23705400  0.26652600  0.76224100  1
  O  O34  1  0.76721600  0.73781300  0.76192700  1
  O  O35  1  0.01745200  0.51670600  0.77001600  1
  O  O36  1  0.00606800  0.75996700  0.02906700  1
  O  O37  1  0.26463700  0.51085800  0.02964000  1
  O  O38  1  0.46308200  0.73229200  0.96578300  1
  O  O39  1  0.20454300  0.70546700  0.26158400  1
  O  O40  1  0.73207000  0.76926000  0.26871800  1
  O  O41  1  0.44793000  0.94710100  0.74109200  1
  O  O42  1  0.96012500  0.99747400  0.72140900  1
  O  O43  1  0.72735600  0.97367500  0.97484200  1
