# generated using pymatgen
data_UTeO5
_symmetry_space_group_name_H-M   'P 1'
_cell_length_a   5.53802700
_cell_length_b   7.84815800
_cell_length_c   10.41745700
_cell_angle_alpha   90.00000000
_cell_angle_beta   90.00000000
_cell_angle_gamma   90.00000000
_symmetry_Int_Tables_number   1
_chemical_formula_structural   UTeO5
_chemical_formula_sum   'U4 Te4 O20'
_cell_volume   452.77717242
_cell_formula_units_Z   4
loop_
 _symmetry_equiv_pos_site_id
 _symmetry_equiv_pos_as_xyz
  1  'x, y, z'
loop_
 _atom_site_type_symbol
 _atom_site_label
 _atom_site_symmetry_multiplicity
 _atom_site_fract_x
 _atom_site_fract_y
 _atom_site_fract_z
 _atom_site_occupancy
  U  U0  1  0.96777100  0.75000000  0.51540700  1
  U  U1  1  0.96777100  0.25000000  0.98459300  1
  U  U2  1  0.03222900  0.25000000  0.48459300  1
  U  U3  1  0.03222900  0.75000000  0.01540700  1
  Te  Te4  1  0.35884300  0.00000000  0.25000000  1
  Te  Te5  1  0.64115700  0.50000000  0.75000000  1
  Te  Te6  1  0.64115700  0.00000000  0.75000000  1
  Te  Te7  1  0.35884300  0.50000000  0.25000000  1
  O  O8  1  0.69693700  0.75000000  0.41510400  1
  O  O9  1  0.69693700  0.25000000  0.08489600  1
  O  O10  1  0.30306300  0.25000000  0.58489600  1
  O  O11  1  0.30306300  0.75000000  0.91510400  1
  O  O12  1  0.23694600  0.75000000  0.61425800  1
  O  O13  1  0.23694600  0.25000000  0.88574200  1
  O  O14  1  0.76305400  0.25000000  0.38574200  1
  O  O15  1  0.76305400  0.75000000  0.11425800  1
  O  O16  1  0.26688700  0.75000000  0.20763900  1
  O  O17  1  0.26688700  0.25000000  0.29236100  1
  O  O18  1  0.73311300  0.25000000  0.79236100  1
  O  O19  1  0.73311300  0.75000000  0.70763900  1
  O  O20  1  0.14448800  0.47306100  0.10477100  1
  O  O21  1  0.14448800  0.52693900  0.39522900  1
  O  O22  1  0.85551200  0.97306100  0.89522900  1
  O  O23  1  0.85551200  0.02693900  0.60477100  1
  O  O24  1  0.85551200  0.52693900  0.89522900  1
  O  O25  1  0.85551200  0.47306100  0.60477100  1
  O  O26  1  0.14448800  0.02693900  0.10477100  1
  O  O27  1  0.14448800  0.97306100  0.39522900  1
