# generated using pymatgen
data_Ca2P2O7
_symmetry_space_group_name_H-M   'P 1'
_cell_length_a   6.77239900
_cell_length_b   6.77239900
_cell_length_c   24.50461700
_cell_angle_alpha   90.00000000
_cell_angle_beta   90.00000000
_cell_angle_gamma   90.00000000
_symmetry_Int_Tables_number   1
_chemical_formula_structural   Ca2P2O7
_chemical_formula_sum   'Ca16 P16 O56'
_cell_volume   1123.91377177
_cell_formula_units_Z   8
loop_
 _symmetry_equiv_pos_site_id
 _symmetry_equiv_pos_as_xyz
  1  'x, y, z'
loop_
 _atom_site_type_symbol
 _atom_site_label
 _atom_site_symmetry_multiplicity
 _atom_site_fract_x
 _atom_site_fract_y
 _atom_site_fract_z
 _atom_site_occupancy
  Ca  Ca0  1  0.63010300  0.88995500  0.63457100  1
  Ca  Ca1  1  0.11004500  0.63010300  0.88457100  1
  Ca  Ca2  1  0.88995500  0.36989700  0.38457100  1
  Ca  Ca3  1  0.36989700  0.11004500  0.13457100  1
  Ca  Ca4  1  0.20185900  0.25978100  0.63750100  1
  Ca  Ca5  1  0.74021900  0.20185900  0.88750100  1
  Ca  Ca6  1  0.25978100  0.79814100  0.38750100  1
  Ca  Ca7  1  0.79814100  0.74021900  0.13750100  1
  Ca  Ca8  1  0.83996600  0.44830400  0.74191800  1
  Ca  Ca9  1  0.55169600  0.83996600  0.99191800  1
  Ca  Ca10  1  0.44830400  0.16003400  0.49191800  1
  Ca  Ca11  1  0.16003400  0.55169600  0.24191800  1
  Ca  Ca12  1  0.86044800  0.76972000  0.50015900  1
  Ca  Ca13  1  0.23028000  0.86044800  0.75015900  1
  Ca  Ca14  1  0.76972000  0.13955200  0.25015900  1
  Ca  Ca15  1  0.13955200  0.23028000  0.00015900  1
  P  P16  1  0.70694400  0.35105500  0.62153300  1
  P  P17  1  0.64894500  0.70694400  0.87153300  1
  P  P18  1  0.35105500  0.29305600  0.37153300  1
  P  P19  1  0.29305600  0.64894500  0.12153300  1
  P  P20  1  0.94320600  0.28326600  0.51865600  1
  P  P21  1  0.71673400  0.94320600  0.76865600  1
  P  P22  1  0.28326600  0.05679400  0.26865600  1
  P  P23  1  0.05679400  0.71673400  0.01865600  1
  P  P24  1  0.12700000  0.74239200  0.62433800  1
  P  P25  1  0.25760800  0.12700000  0.87433800  1
  P  P26  1  0.74239200  0.87300000  0.37433800  1
  P  P27  1  0.87300000  0.25760800  0.12433800  1
  P  P28  1  0.37241200  0.69024500  0.52285000  1
  P  P29  1  0.30975500  0.37241200  0.77285000  1
  P  P30  1  0.69024500  0.62758800  0.27285000  1
  P  P31  1  0.62758800  0.30975500  0.02285000  1
  O  O32  1  0.84762000  0.22682900  0.65751500  1
  O  O33  1  0.77317100  0.84762000  0.90751500  1
  O  O34  1  0.22682900  0.15238000  0.40751500  1
  O  O35  1  0.15238000  0.77317100  0.15751500  1
  O  O36  1  0.53104100  0.22182600  0.60348000  1
  O  O37  1  0.77817400  0.53104100  0.85348000  1
  O  O38  1  0.22182600  0.46895900  0.35348000  1
  O  O39  1  0.46895900  0.77817400  0.10348000  1
  O  O40  1  0.65169000  0.54606700  0.64753200  1
  O  O41  1  0.45393300  0.65169000  0.89753200  1
  O  O42  1  0.54606700  0.34831000  0.39753200  1
  O  O43  1  0.34831000  0.45393300  0.14753200  1
  O  O44  1  0.83157100  0.40897500  0.56693000  1
  O  O45  1  0.59102500  0.83157100  0.81693000  1
  O  O46  1  0.40897500  0.16842900  0.31693000  1
  O  O47  1  0.16842900  0.59102500  0.06693000  1
  O  O48  1  0.96127100  0.44388100  0.47506400  1
  O  O49  1  0.55611900  0.96127100  0.72506400  1
  O  O50  1  0.44388100  0.03872900  0.22506400  1
  O  O51  1  0.03872900  0.55611900  0.97506400  1
  O  O52  1  0.80632400  0.11646000  0.50016700  1
  O  O53  1  0.94263700  0.81987100  0.59564800  1
  O  O54  1  0.88354000  0.80632400  0.75016700  1
  O  O55  1  0.19367600  0.88354000  0.00016700  1
  O  O56  1  0.13858100  0.21162100  0.54262400  1
  O  O57  1  0.78837900  0.13858100  0.79262400  1
  O  O58  1  0.21162100  0.86141900  0.29262400  1
  O  O59  1  0.86141900  0.78837900  0.04262400  1
  O  O60  1  0.09771100  0.58329600  0.66794500  1
  O  O61  1  0.41670400  0.09771100  0.91794500  1
  O  O62  1  0.58329600  0.90228900  0.41794500  1
  O  O63  1  0.90228900  0.41670400  0.16794500  1
  O  O64  1  0.46708200  0.16085700  0.04144800  1
  O  O65  1  0.83914300  0.46708200  0.29144800  1
  O  O66  1  0.16085700  0.53291800  0.79144800  1
  O  O67  1  0.53291800  0.83914300  0.54144800  1
  O  O68  1  0.77835100  0.20190800  0.98635200  1
  O  O69  1  0.79809200  0.77835100  0.23635200  1
  O  O70  1  0.20190800  0.22164900  0.73635200  1
  O  O71  1  0.22164900  0.79809200  0.48635200  1
  O  O72  1  0.54008900  0.49661500  0.00037500  1
  O  O73  1  0.50338500  0.54008900  0.25037500  1
  O  O74  1  0.49661500  0.45991100  0.75037500  1
  O  O75  1  0.45991100  0.50338500  0.50037500  1
  O  O76  1  0.74406600  0.37651900  0.07875800  1
  O  O77  1  0.62348100  0.74406600  0.32875800  1
  O  O78  1  0.37651900  0.25593400  0.82875800  1
  O  O79  1  0.25593400  0.62348100  0.57875800  1
  O  O80  1  0.74381200  0.08950400  0.14768600  1
  O  O81  1  0.91049600  0.74381200  0.39768600  1
  O  O82  1  0.08950400  0.25618800  0.89768600  1
  O  O83  1  0.25618800  0.91049600  0.64768600  1
  O  O84  1  0.05736300  0.18012900  0.09564800  1
  O  O85  1  0.81987100  0.05736300  0.34564800  1
  O  O86  1  0.18012900  0.94263700  0.84564800  1
  O  O87  1  0.11646000  0.19367600  0.25016700  1
