# generated using pymatgen
data_Ge2Sb2Te5
_symmetry_space_group_name_H-M   'P 1'
_cell_length_a   4.26483213
_cell_length_b   4.26483213
_cell_length_c   17.99910500
_cell_angle_alpha   90.00000000
_cell_angle_beta   90.00000000
_cell_angle_gamma   120.00000195
_symmetry_Int_Tables_number   1
_chemical_formula_structural   Ge2Sb2Te5
_chemical_formula_sum   'Ge2 Sb2 Te5'
_cell_volume   283.52111981
_cell_formula_units_Z   1
loop_
 _symmetry_equiv_pos_site_id
 _symmetry_equiv_pos_as_xyz
  1  'x, y, z'
loop_
 _atom_site_type_symbol
 _atom_site_label
 _atom_site_symmetry_multiplicity
 _atom_site_fract_x
 _atom_site_fract_y
 _atom_site_fract_z
 _atom_site_occupancy
  Ge  Ge0  1  0.00000000  0.00000000  0.33225200  1
  Ge  Ge1  1  0.00000000  0.00000000  0.66774800  1
  Sb  Sb2  1  0.33333300  0.66666700  0.11265800  1
  Sb  Sb3  1  0.66666700  0.33333300  0.88734200  1
  Te  Te4  1  0.00000000  0.00000000  0.00000000  1
  Te  Te5  1  0.33333300  0.66666700  0.79010800  1
  Te  Te6  1  0.66666700  0.33333300  0.20989200  1
  Te  Te7  1  0.33333300  0.66666700  0.41104500  1
  Te  Te8  1  0.66666700  0.33333300  0.58895500  1
