# generated using pymatgen
data_Sr(InTe2)2
_symmetry_space_group_name_H-M   'P 1'
_cell_length_a   7.21114885
_cell_length_b   7.21114885
_cell_length_c   7.21114885
_cell_angle_alpha   104.54872717
_cell_angle_beta   104.54872717
_cell_angle_gamma   119.84091136
_symmetry_Int_Tables_number   1
_chemical_formula_structural   Sr(InTe2)2
_chemical_formula_sum   'Sr1 In2 Te4'
_cell_volume   281.46212458
_cell_formula_units_Z   1
loop_
 _symmetry_equiv_pos_site_id
 _symmetry_equiv_pos_as_xyz
  1  'x, y, z'
loop_
 _atom_site_type_symbol
 _atom_site_label
 _atom_site_symmetry_multiplicity
 _atom_site_fract_x
 _atom_site_fract_y
 _atom_site_fract_z
 _atom_site_occupancy
  Sr  Sr0  1  0.50000000  0.50000000  0.00000000  1
  In  In1  1  0.25000000  0.75000000  0.50000000  1
  In  In2  1  0.75000000  0.25000000  0.50000000  1
  Te  Te3  1  0.83066500  0.31618500  0.14685100  1
  Te  Te4  1  0.68381500  0.83066500  0.51448000  1
  Te  Te5  1  0.31618500  0.16933500  0.48552000  1
  Te  Te6  1  0.16933500  0.68381500  0.85314900  1
