# generated using pymatgen
data_BaBi2O5
_symmetry_space_group_name_H-M   'P 1'
_cell_length_a   4.21076600
_cell_length_b   4.21076600
_cell_length_c   9.42318800
_cell_angle_alpha   90.00000000
_cell_angle_beta   90.00000000
_cell_angle_gamma   90.00000000
_symmetry_Int_Tables_number   1
_chemical_formula_structural   BaBi2O5
_chemical_formula_sum   'Ba1 Bi2 O5'
_cell_volume   167.07830888
_cell_formula_units_Z   1
loop_
 _symmetry_equiv_pos_site_id
 _symmetry_equiv_pos_as_xyz
  1  'x, y, z'
loop_
 _atom_site_type_symbol
 _atom_site_label
 _atom_site_symmetry_multiplicity
 _atom_site_fract_x
 _atom_site_fract_y
 _atom_site_fract_z
 _atom_site_occupancy
  Ba  Ba0  1  0.00000000  0.00000000  0.50000000  1
  Bi  Bi1  1  0.50000000  0.50000000  0.22291900  1
  Bi  Bi2  1  0.50000000  0.50000000  0.77708100  1
  O  O3  1  0.00000000  0.50000000  0.30728100  1
  O  O4  1  0.50000000  0.50000000  0.00000000  1
  O  O5  1  0.50000000  0.00000000  0.30728100  1
  O  O6  1  0.50000000  0.00000000  0.69271900  1
  O  O7  1  0.00000000  0.50000000  0.69271900  1
