# generated using pymatgen
data_NaTlO2
_symmetry_space_group_name_H-M   'P 1'
_cell_length_a   5.86693899
_cell_length_b   5.86693899
_cell_length_c   5.86693899
_cell_angle_alpha   130.76403766
_cell_angle_beta   130.76403766
_cell_angle_gamma   72.18824277
_symmetry_Int_Tables_number   1
_chemical_formula_structural   NaTlO2
_chemical_formula_sum   'Na2 Tl2 O4'
_cell_volume   113.26637641
_cell_formula_units_Z   2
loop_
 _symmetry_equiv_pos_site_id
 _symmetry_equiv_pos_as_xyz
  1  'x, y, z'
loop_
 _atom_site_type_symbol
 _atom_site_label
 _atom_site_symmetry_multiplicity
 _atom_site_fract_x
 _atom_site_fract_y
 _atom_site_fract_z
 _atom_site_occupancy
  Na  Na0  1  0.25000000  0.75000000  0.50000000  1
  Na  Na1  1  0.50000000  0.50000000  0.00000000  1
  Tl  Tl2  1  0.00000000  0.00000000  0.00000000  1
  Tl  Tl3  1  0.75000000  0.25000000  0.50000000  1
  O  O4  1  0.97883200  0.47883200  0.50000000  1
  O  O5  1  0.77116800  0.77116800  0.00000000  1
  O  O6  1  0.52116800  0.02116800  0.50000000  1
  O  O7  1  0.22883200  0.22883200  0.00000000  1
