# generated using pymatgen
data_H4BrN
_symmetry_space_group_name_H-M   'P 1'
_cell_length_a   4.06159900
_cell_length_b   4.06159900
_cell_length_c   4.06159900
_cell_angle_alpha   90.00000000
_cell_angle_beta   90.00000000
_cell_angle_gamma   90.00000000
_symmetry_Int_Tables_number   1
_chemical_formula_structural   H4BrN
_chemical_formula_sum   'H4 Br1 N1'
_cell_volume   67.00251898
_cell_formula_units_Z   1
loop_
 _symmetry_equiv_pos_site_id
 _symmetry_equiv_pos_as_xyz
  1  'x, y, z'
loop_
 _atom_site_type_symbol
 _atom_site_label
 _atom_site_symmetry_multiplicity
 _atom_site_fract_x
 _atom_site_fract_y
 _atom_site_fract_z
 _atom_site_occupancy
  H  H0  1  0.14804600  0.14804600  0.85195400  1
  H  H1  1  0.14804600  0.85195400  0.14804600  1
  H  H2  1  0.85195400  0.14804600  0.14804600  1
  H  H3  1  0.85195400  0.85195400  0.85195400  1
  Br  Br4  1  0.50000000  0.50000000  0.50000000  1
  N  N5  1  0.00000000  0.00000000  0.00000000  1
