# generated using pymatgen
data_Bi2O3
_symmetry_space_group_name_H-M   'P 1'
_cell_length_a   3.72776300
_cell_length_b   4.31919000
_cell_length_c   5.71662344
_cell_angle_alpha   87.34153762
_cell_angle_beta   90.00000000
_cell_angle_gamma   90.00000000
_symmetry_Int_Tables_number   1
_chemical_formula_structural   Bi2O3
_chemical_formula_sum   'Bi2 O3'
_cell_volume   91.94381773
_cell_formula_units_Z   1
loop_
 _symmetry_equiv_pos_site_id
 _symmetry_equiv_pos_as_xyz
  1  'x, y, z'
loop_
 _atom_site_type_symbol
 _atom_site_label
 _atom_site_symmetry_multiplicity
 _atom_site_fract_x
 _atom_site_fract_y
 _atom_site_fract_z
 _atom_site_occupancy
  Bi  Bi0  1  0.00000000  0.95648300  0.03577300  1
  Bi  Bi1  1  0.50000000  0.51883800  0.48006800  1
  O  O2  1  0.00000000  0.49631500  0.21219600  1
  O  O3  1  0.00000000  0.70970600  0.68618600  1
  O  O4  1  0.50000000  0.96065800  0.26477700  1
