# generated using pymatgen
data_Al(HO)3
_symmetry_space_group_name_H-M   'P 1'
_cell_length_a   5.06575700
_cell_length_b   5.07027214
_cell_length_c   5.25734522
_cell_angle_alpha   106.88478185
_cell_angle_beta   96.29368280
_cell_angle_gamma   118.06661608
_symmetry_Int_Tables_number   1
_chemical_formula_structural   Al(HO)3
_chemical_formula_sum   'Al2 H6 O6'
_cell_volume   109.05945913
_cell_formula_units_Z   2
loop_
 _symmetry_equiv_pos_site_id
 _symmetry_equiv_pos_as_xyz
  1  'x, y, z'
loop_
 _atom_site_type_symbol
 _atom_site_label
 _atom_site_symmetry_multiplicity
 _atom_site_fract_x
 _atom_site_fract_y
 _atom_site_fract_z
 _atom_site_occupancy
  Al  Al0  1  0.16891600  0.32941100  0.00371100  1
  Al  Al1  1  0.83108400  0.67058900  0.99628900  1
  H  H2  1  0.06379100  0.63353700  0.41054200  1
  H  H3  1  0.93620900  0.36646300  0.58945800  1
  H  H4  1  0.54256100  0.91207300  0.20942900  1
  H  H5  1  0.28489900  0.17096800  0.40900600  1
  H  H6  1  0.71510100  0.82903200  0.59099400  1
  H  H7  1  0.45743900  0.08792700  0.79057100  1
  O  O8  1  0.05298300  0.51850500  0.78081000  1
  O  O9  1  0.19972200  0.08810900  0.20558700  1
  O  O10  1  0.56585100  0.73313300  0.21751300  1
  O  O11  1  0.43414900  0.26686700  0.78248700  1
  O  O12  1  0.80027800  0.91189100  0.79441300  1
  O  O13  1  0.94701700  0.48149500  0.21919000  1
