# generated using pymatgen
data_SmPO4
_symmetry_space_group_name_H-M   'P 1'
_cell_length_a   6.96476500
_cell_length_b   6.40164900
_cell_length_c   8.11556876
_cell_angle_alpha   54.20116843
_cell_angle_beta   90.00000000
_cell_angle_gamma   90.00000000
_symmetry_Int_Tables_number   1
_chemical_formula_structural   SmPO4
_chemical_formula_sum   'Sm4 P4 O16'
_cell_volume   293.48013009
_cell_formula_units_Z   4
loop_
 _symmetry_equiv_pos_site_id
 _symmetry_equiv_pos_as_xyz
  1  'x, y, z'
loop_
 _atom_site_type_symbol
 _atom_site_label
 _atom_site_symmetry_multiplicity
 _atom_site_fract_x
 _atom_site_fract_y
 _atom_site_fract_z
 _atom_site_occupancy
  Sm  Sm0  1  0.65521700  0.18837900  0.21558300  1
  Sm  Sm1  1  0.15521700  0.81162100  0.28441700  1
  Sm  Sm2  1  0.34478300  0.81162100  0.78441700  1
  Sm  Sm3  1  0.84478300  0.18837900  0.71558300  1
  P  P4  1  0.66049500  0.69080000  0.19778500  1
  P  P5  1  0.16049500  0.30920000  0.30221500  1
  P  P6  1  0.33950500  0.30920000  0.80221500  1
  P  P7  1  0.83950500  0.69080000  0.69778500  1
  O  O8  1  0.70956000  0.41175600  0.37746800  1
  O  O9  1  0.20956000  0.58824400  0.12253200  1
  O  O10  1  0.29044000  0.58824400  0.62253200  1
  O  O11  1  0.79044000  0.41175600  0.87746800  1
  O  O12  1  0.60017900  0.65832100  0.02978400  1
  O  O13  1  0.10017900  0.34167900  0.47021600  1
  O  O14  1  0.39982100  0.34167900  0.97021600  1
  O  O15  1  0.89982100  0.65832100  0.52978400  1
  O  O16  1  0.99698600  0.81508100  0.74964300  1
  O  O17  1  0.49698600  0.18491900  0.75035700  1
  O  O18  1  0.00301400  0.18491900  0.25035700  1
  O  O19  1  0.50301400  0.81508100  0.24964300  1
  O  O20  1  0.66640300  0.88189100  0.61740400  1
  O  O21  1  0.16640300  0.11810900  0.88259600  1
  O  O22  1  0.33359700  0.11810900  0.38259600  1
  O  O23  1  0.83359700  0.88189100  0.11740400  1
