# generated using pymatgen
data_Ce2Nd2O7
_symmetry_space_group_name_H-M   'P 1'
_cell_length_a   9.57380700
_cell_length_b   9.58795332
_cell_length_c   9.66860581
_cell_angle_alpha   109.24753542
_cell_angle_beta   109.80763106
_cell_angle_gamma   108.97674815
_symmetry_Int_Tables_number   1
_chemical_formula_structural   Ce2Nd2O7
_chemical_formula_sum   'Ce8 Nd8 O28'
_cell_volume   686.37904235
_cell_formula_units_Z   4
loop_
 _symmetry_equiv_pos_site_id
 _symmetry_equiv_pos_as_xyz
  1  'x, y, z'
loop_
 _atom_site_type_symbol
 _atom_site_label
 _atom_site_symmetry_multiplicity
 _atom_site_fract_x
 _atom_site_fract_y
 _atom_site_fract_z
 _atom_site_occupancy
  Ce  Ce0  1  0.24858500  0.25081200  0.99425100  1
  Ce  Ce1  1  0.52641600  0.27268200  0.77020600  1
  Ce  Ce2  1  0.49868700  0.49474100  0.49596000  1
  Ce  Ce3  1  0.49371600  0.74487400  0.24882700  1
  Ce  Ce4  1  0.75892800  0.75536700  0.00393600  1
  Ce  Ce5  1  0.49571100  0.99696600  0.99505500  1
  Ce  Ce6  1  0.74844800  0.00313000  0.74988600  1
  Ce  Ce7  1  0.99760500  0.24655500  0.22801900  1
  Nd  Nd8  1  0.99434900  0.76584600  0.76321800  1
  Nd  Nd9  1  0.24080600  0.99759200  0.22547300  1
  Nd  Nd10  1  0.97293700  0.00782400  0.49549000  1
  Nd  Nd11  1  0.00602300  0.51097900  0.02943900  1
  Nd  Nd12  1  0.29505200  0.51908600  0.77267000  1
  Nd  Nd13  1  0.26957500  0.72512400  0.50449900  1
  Nd  Nd14  1  0.69872500  0.22950200  0.47869800  1
  Nd  Nd15  1  0.73388200  0.47907000  0.24164500  1
  O  O16  1  0.23414800  0.73790100  0.74603700  1
  O  O17  1  0.25442400  0.24063800  0.72569400  1
  O  O18  1  0.00035200  0.01755200  0.26141100  1
  O  O19  1  0.24626400  0.47099700  0.49554600  1
  O  O20  1  0.99576600  0.24064800  0.99255800  1
  O  O21  1  0.26491400  0.76978800  0.27613200  1
  O  O22  1  0.24901400  0.25692700  0.23545400  1
  O  O23  1  0.74131400  0.00677200  0.98999200  1
  O  O24  1  0.51001700  0.73839100  0.49820700  1
  O  O25  1  0.50267600  0.24102600  0.99829800  1
  O  O26  1  0.52734300  0.51427100  0.75815000  1
  O  O27  1  0.24333400  0.50529400  0.99197000  1
  O  O28  1  0.48341500  0.49348000  0.23665400  1
  O  O29  1  0.52473300  0.75751000  0.01477900  1
  O  O30  1  0.46766600  0.23267800  0.49828700  1
  O  O31  1  0.25386000  0.01334700  0.99463000  1
  O  O32  1  0.74680400  0.76828000  0.76291500  1
  O  O33  1  0.49287700  0.00609900  0.73105000  1
  O  O34  1  0.99253800  0.74075300  0.98906200  1
  O  O35  1  0.76249700  0.27497100  0.75663700  1
  O  O36  1  0.48593200  0.98625700  0.22478100  1
  O  O37  1  0.75330400  0.50630500  0.51219800  1
  O  O38  1  0.99376500  0.99448400  0.73671200  1
  O  O39  1  0.76926500  0.74794000  0.28075300  1
  O  O40  1  0.74383600  0.50685400  0.00610000  1
  O  O41  1  0.77421000  0.23663700  0.26835800  1
  O  O42  1  0.74219800  0.00947400  0.49690900  1
  O  O43  1  0.00199100  0.50394100  0.26618600  1
