# generated using pymatgen
data_BaAl2O4
_symmetry_space_group_name_H-M   'P 1'
_cell_length_a   5.26727975
_cell_length_b   5.26727975
_cell_length_c   8.98096200
_cell_angle_alpha   90.00000000
_cell_angle_beta   90.00000000
_cell_angle_gamma   119.99999686
_symmetry_Int_Tables_number   1
_chemical_formula_structural   BaAl2O4
_chemical_formula_sum   'Ba2 Al4 O8'
_cell_volume   215.78749512
_cell_formula_units_Z   2
loop_
 _symmetry_equiv_pos_site_id
 _symmetry_equiv_pos_as_xyz
  1  'x, y, z'
loop_
 _atom_site_type_symbol
 _atom_site_label
 _atom_site_symmetry_multiplicity
 _atom_site_fract_x
 _atom_site_fract_y
 _atom_site_fract_z
 _atom_site_occupancy
  Ba  Ba0  1  0.00000000  0.00000000  0.75000000  1
  Ba  Ba1  1  0.00000000  0.00000000  0.25000000  1
  Al  Al2  1  0.66666700  0.33333300  0.55412400  1
  Al  Al3  1  0.33333300  0.66666700  0.05412400  1
  Al  Al4  1  0.33333300  0.66666700  0.44587600  1
  Al  Al5  1  0.66666700  0.33333300  0.94587600  1
  O  O6  1  0.33333300  0.66666700  0.25000000  1
  O  O7  1  0.66666700  0.33333300  0.75000000  1
  O  O8  1  0.00000000  0.64430700  0.50000000  1
  O  O9  1  0.35569300  0.35569300  0.50000000  1
  O  O10  1  0.64430700  0.00000000  0.50000000  1
  O  O11  1  0.35569300  0.00000000  0.00000000  1
  O  O12  1  0.00000000  0.35569300  0.00000000  1
  O  O13  1  0.64430700  0.64430700  0.00000000  1
