# generated using pymatgen
data_Ag2S
_symmetry_space_group_name_H-M   'P 1'
_cell_length_a   6.26596100
_cell_length_b   4.45681500
_cell_length_c   6.18685648
_cell_angle_alpha   46.53268709
_cell_angle_beta   90.00000000
_cell_angle_gamma   90.00000000
_symmetry_Int_Tables_number   1
_chemical_formula_structural   Ag2S
_chemical_formula_sum   'Ag4 S2'
_cell_volume   125.39480016
_cell_formula_units_Z   2
loop_
 _symmetry_equiv_pos_site_id
 _symmetry_equiv_pos_as_xyz
  1  'x, y, z'
loop_
 _atom_site_type_symbol
 _atom_site_label
 _atom_site_symmetry_multiplicity
 _atom_site_fract_x
 _atom_site_fract_y
 _atom_site_fract_z
 _atom_site_occupancy
  Ag  Ag0  1  0.09942300  0.30466300  0.27289700  1
  Ag  Ag1  1  0.56603300  0.58464100  0.08959300  1
  Ag  Ag2  1  0.90057700  0.30466300  0.77289700  1
  Ag  Ag3  1  0.43396700  0.58464100  0.58959300  1
  S  S4  1  0.75198600  0.98569600  0.57500900  1
  S  S5  1  0.24801400  0.98569600  0.07500900  1
