# generated using pymatgen
data_Al(MoS2)4
_symmetry_space_group_name_H-M   'P 1'
_cell_length_a   6.93850933
_cell_length_b   6.93850933
_cell_length_c   6.93850933
_cell_angle_alpha   60.00000000
_cell_angle_beta   60.00000000
_cell_angle_gamma   60.00000000
_symmetry_Int_Tables_number   1
_chemical_formula_structural   Al(MoS2)4
_chemical_formula_sum   'Al1 Mo4 S8'
_cell_volume   236.20197921
_cell_formula_units_Z   1
loop_
 _symmetry_equiv_pos_site_id
 _symmetry_equiv_pos_as_xyz
  1  'x, y, z'
loop_
 _atom_site_type_symbol
 _atom_site_label
 _atom_site_symmetry_multiplicity
 _atom_site_fract_x
 _atom_site_fract_y
 _atom_site_fract_z
 _atom_site_occupancy
  Al  Al0  1  0.00000000  0.00000000  0.00000000  1
  Mo  Mo1  1  0.60237800  0.60237800  0.60237800  1
  Mo  Mo2  1  0.19286700  0.60237800  0.60237800  1
  Mo  Mo3  1  0.60237800  0.60237800  0.19286700  1
  Mo  Mo4  1  0.60237800  0.19286700  0.60237800  1
  S  S5  1  0.86546700  0.86546700  0.86546700  1
  S  S6  1  0.40360000  0.86546700  0.86546700  1
  S  S7  1  0.86546700  0.86546700  0.40360000  1
  S  S8  1  0.36654100  0.90037800  0.36654100  1
  S  S9  1  0.36654100  0.36654100  0.90037800  1
  S  S10  1  0.90037800  0.36654100  0.36654100  1
  S  S11  1  0.36654100  0.36654100  0.36654100  1
  S  S12  1  0.86546700  0.40360000  0.86546700  1
