# generated using pymatgen
data_Na2BeF4
_symmetry_space_group_name_H-M   'P 1'
_cell_length_a   8.10679700
_cell_length_b   5.62974300
_cell_length_c   8.97786070
_cell_angle_alpha   61.69332346
_cell_angle_beta   90.00000000
_cell_angle_gamma   90.00000000
_symmetry_Int_Tables_number   1
_chemical_formula_structural   Na2BeF4
_chemical_formula_sum   'Na8 Be4 F16'
_cell_volume   360.74611890
_cell_formula_units_Z   4
loop_
 _symmetry_equiv_pos_site_id
 _symmetry_equiv_pos_as_xyz
  1  'x, y, z'
loop_
 _atom_site_type_symbol
 _atom_site_label
 _atom_site_symmetry_multiplicity
 _atom_site_fract_x
 _atom_site_fract_y
 _atom_site_fract_z
 _atom_site_occupancy
  Na  Na0  1  0.34298400  0.41126300  0.37471100  1
  Na  Na1  1  0.84298400  0.58873700  0.12528900  1
  Na  Na2  1  0.65701600  0.58873700  0.62528900  1
  Na  Na3  1  0.15701600  0.41126300  0.87471100  1
  Na  Na4  1  0.48650000  0.14437200  0.13673300  1
  Na  Na5  1  0.98650000  0.85562800  0.36326700  1
  Na  Na6  1  0.51350000  0.85562800  0.86326700  1
  Na  Na7  1  0.01350000  0.14437200  0.63673300  1
  Be  Be8  1  0.30292500  0.75395900  0.53814400  1
  Be  Be9  1  0.69707500  0.24604100  0.46185600  1
  Be  Be10  1  0.19707500  0.75395900  0.03814400  1
  Be  Be11  1  0.80292500  0.24604100  0.96185600  1
  F  F12  1  0.81845400  0.48414400  0.43192100  1
  F  F13  1  0.31845400  0.51585600  0.06807900  1
  F  F14  1  0.18154600  0.51585600  0.56807900  1
  F  F15  1  0.68154600  0.48414400  0.93192100  1
  F  F16  1  0.92992800  0.21228400  0.10149600  1
  F  F17  1  0.57007200  0.21228400  0.60149600  1
  F  F18  1  0.42992800  0.78771600  0.39850400  1
  F  F19  1  0.07007200  0.78771600  0.89850400  1
  F  F20  1  0.89303900  0.32331800  0.79311400  1
  F  F21  1  0.39303900  0.67668200  0.70688600  1
  F  F22  1  0.10696100  0.67668200  0.20688600  1
  F  F23  1  0.60696100  0.32331800  0.29311400  1
  F  F24  1  0.69507800  0.98423400  0.02034400  1
  F  F25  1  0.19507800  0.01576600  0.47965600  1
  F  F26  1  0.30492200  0.01576600  0.97965600  1
  F  F27  1  0.80492200  0.98423400  0.52034400  1
