# generated using pymatgen
data_Ca3Si2O7
_symmetry_space_group_name_H-M   'P 1'
_cell_length_a   8.99406000
_cell_length_b   7.92686700
_cell_length_c   10.67987292
_cell_angle_alpha   60.67191538
_cell_angle_beta   90.00000000
_cell_angle_gamma   90.00000000
_symmetry_Int_Tables_number   1
_chemical_formula_structural   Ca3Si2O7
_chemical_formula_sum   'Ca12 Si8 O28'
_cell_volume   663.82696747
_cell_formula_units_Z   4
loop_
 _symmetry_equiv_pos_site_id
 _symmetry_equiv_pos_as_xyz
  1  'x, y, z'
loop_
 _atom_site_type_symbol
 _atom_site_label
 _atom_site_symmetry_multiplicity
 _atom_site_fract_x
 _atom_site_fract_y
 _atom_site_fract_z
 _atom_site_occupancy
  Ca  Ca0  1  0.59378100  0.28640400  0.15718900  1
  Ca  Ca1  1  0.09378100  0.71359600  0.34281100  1
  Ca  Ca2  1  0.40621900  0.71359600  0.84281100  1
  Ca  Ca3  1  0.90621900  0.28640400  0.65718900  1
  Ca  Ca4  1  0.92487900  0.20759100  0.33120500  1
  Ca  Ca5  1  0.42487900  0.79240900  0.16879500  1
  Ca  Ca6  1  0.07512100  0.79240900  0.66879500  1
  Ca  Ca7  1  0.57512100  0.20759100  0.83120500  1
  Ca  Ca8  1  0.44014700  0.29015700  0.49156500  1
  Ca  Ca9  1  0.94014700  0.70984300  0.00843500  1
  Ca  Ca10  1  0.55985300  0.70984300  0.50843500  1
  Ca  Ca11  1  0.05985300  0.29015700  0.99156500  1
  Si  Si12  1  0.28438900  0.98484900  0.41083100  1
  Si  Si13  1  0.78438900  0.01515100  0.08916900  1
  Si  Si14  1  0.71561100  0.01515100  0.58916900  1
  Si  Si15  1  0.21561100  0.98484900  0.91083100  1
  Si  Si16  1  0.26651900  0.43253800  0.20391300  1
  Si  Si17  1  0.76651900  0.56746200  0.29608700  1
  Si  Si18  1  0.73348100  0.56746200  0.79608700  1
  Si  Si19  1  0.23348100  0.43253800  0.70391300  1
  O  O20  1  0.33458300  0.93839400  0.57262400  1
  O  O21  1  0.83458300  0.06160600  0.92737600  1
  O  O22  1  0.66541700  0.06160600  0.42737600  1
  O  O23  1  0.16541700  0.93839400  0.07262400  1
  O  O24  1  0.35969500  0.84290400  0.35892900  1
  O  O25  1  0.85969500  0.15709600  0.14107100  1
  O  O26  1  0.64030500  0.15709600  0.64107100  1
  O  O27  1  0.14030500  0.84290400  0.85892900  1
  O  O28  1  0.10378100  0.97300800  0.40135700  1
  O  O29  1  0.60378100  0.02699200  0.09864300  1
  O  O30  1  0.89621900  0.02699200  0.59864300  1
  O  O31  1  0.39621900  0.97300800  0.90135700  1
  O  O32  1  0.34649500  0.21036800  0.29699100  1
  O  O33  1  0.84649500  0.78963200  0.20300900  1
  O  O34  1  0.65350500  0.78963200  0.70300900  1
  O  O35  1  0.15350500  0.21036800  0.79699100  1
  O  O36  1  0.39832000  0.54836200  0.08906900  1
  O  O37  1  0.89832000  0.45163800  0.41093100  1
  O  O38  1  0.60168000  0.45163800  0.91093100  1
  O  O39  1  0.10168000  0.54836200  0.58906900  1
  O  O40  1  0.39716300  0.42024800  0.64331000  1
  O  O41  1  0.89716300  0.57975200  0.85669000  1
  O  O42  1  0.60283700  0.57975200  0.35669000  1
  O  O43  1  0.10283700  0.42024800  0.14331000  1
  O  O44  1  0.23856800  0.50942400  0.82067400  1
  O  O45  1  0.73856800  0.49057600  0.67932600  1
  O  O46  1  0.76143200  0.49057600  0.17932600  1
  O  O47  1  0.26143200  0.50942400  0.32067400  1
