# generated using pymatgen
data_AlPO4
_symmetry_space_group_name_H-M   'P 1'
_cell_length_a   5.05495883
_cell_length_b   5.05495883
_cell_length_c   11.16436600
_cell_angle_alpha   90.00000000
_cell_angle_beta   90.00000000
_cell_angle_gamma   120.00001085
_symmetry_Int_Tables_number   1
_chemical_formula_structural   AlPO4
_chemical_formula_sum   'Al3 P3 O12'
_cell_volume   247.05855396
_cell_formula_units_Z   3
loop_
 _symmetry_equiv_pos_site_id
 _symmetry_equiv_pos_as_xyz
  1  'x, y, z'
loop_
 _atom_site_type_symbol
 _atom_site_label
 _atom_site_symmetry_multiplicity
 _atom_site_fract_x
 _atom_site_fract_y
 _atom_site_fract_z
 _atom_site_occupancy
  Al  Al0  1  0.47298600  0.00000000  0.66666700  1
  Al  Al1  1  0.00000000  0.47298600  0.33333300  1
  Al  Al2  1  0.52701400  0.52701400  0.00000000  1
  P  P3  1  0.47350300  0.00000000  0.16666700  1
  P  P4  1  0.00000000  0.47350300  0.83333300  1
  P  P5  1  0.52649700  0.52649700  0.50000000  1
  O  O6  1  0.17095500  0.75351500  0.22186700  1
  O  O7  1  0.24648500  0.41744000  0.88853300  1
  O  O8  1  0.58256000  0.82904500  0.55520000  1
  O  O9  1  0.41744000  0.24648500  0.11146700  1
  O  O10  1  0.82904500  0.58256000  0.44480000  1
  O  O11  1  0.75351500  0.17095500  0.77813300  1
  O  O12  1  0.71988100  0.13753200  0.26486500  1
  O  O13  1  0.86246800  0.58235000  0.93153200  1
  O  O14  1  0.41765000  0.28011900  0.59819900  1
  O  O15  1  0.58235000  0.86246800  0.06846800  1
  O  O16  1  0.28011900  0.41765000  0.40180100  1
  O  O17  1  0.13753200  0.71988100  0.73513500  1
