# generated using pymatgen
data_Pr(CdP)3
_symmetry_space_group_name_H-M   'P 1'
_cell_length_a   4.32454850
_cell_length_b   4.32454850
_cell_length_c   21.24987000
_cell_angle_alpha   90.00000000
_cell_angle_beta   90.00000000
_cell_angle_gamma   120.00000758
_symmetry_Int_Tables_number   1
_chemical_formula_structural   Pr(CdP)3
_chemical_formula_sum   'Pr2 Cd6 P6'
_cell_volume   344.16636056
_cell_formula_units_Z   2
loop_
 _symmetry_equiv_pos_site_id
 _symmetry_equiv_pos_as_xyz
  1  'x, y, z'
loop_
 _atom_site_type_symbol
 _atom_site_label
 _atom_site_symmetry_multiplicity
 _atom_site_fract_x
 _atom_site_fract_y
 _atom_site_fract_z
 _atom_site_occupancy
  Pr  Pr0  1  0.00000000  0.00000000  0.50000000  1
  Pr  Pr1  1  0.00000000  0.00000000  0.00000000  1
  Cd  Cd2  1  0.33333300  0.66666700  0.75000000  1
  Cd  Cd3  1  0.66666700  0.33333300  0.25000000  1
  Cd  Cd4  1  0.66666700  0.33333300  0.62649500  1
  Cd  Cd5  1  0.33333300  0.66666700  0.12649500  1
  Cd  Cd6  1  0.33333300  0.66666700  0.37350500  1
  Cd  Cd7  1  0.66666700  0.33333300  0.87350500  1
  P  P8  1  0.66666700  0.33333300  0.75000000  1
  P  P9  1  0.33333300  0.66666700  0.25000000  1
  P  P10  1  0.66666700  0.33333300  0.07768200  1
  P  P11  1  0.33333300  0.66666700  0.57768200  1
  P  P12  1  0.33333300  0.66666700  0.92231800  1
  P  P13  1  0.66666700  0.33333300  0.42231800  1
