# generated using pymatgen
data_NaNd3Ti2(SbO7)2
_symmetry_space_group_name_H-M   'P 1'
_cell_length_a   7.38223500
_cell_length_b   7.43327700
_cell_length_c   12.80480594
_cell_angle_alpha   54.87344679
_cell_angle_beta   90.00000000
_cell_angle_gamma   90.00000000
_symmetry_Int_Tables_number   1
_chemical_formula_structural   NaNd3Ti2(SbO7)2
_chemical_formula_sum   'Na2 Nd6 Ti4 Sb4 O28'
_cell_volume   574.68841758
_cell_formula_units_Z   2
loop_
 _symmetry_equiv_pos_site_id
 _symmetry_equiv_pos_as_xyz
  1  'x, y, z'
loop_
 _atom_site_type_symbol
 _atom_site_label
 _atom_site_symmetry_multiplicity
 _atom_site_fract_x
 _atom_site_fract_y
 _atom_site_fract_z
 _atom_site_occupancy
  Na  Na0  1  0.50000000  0.50000000  0.00000000  1
  Na  Na1  1  0.50000000  0.50000000  0.50000000  1
  Nd  Nd2  1  0.27055300  0.00000000  0.75000000  1
  Nd  Nd3  1  0.25797500  0.50000000  0.75000000  1
  Nd  Nd4  1  0.74202500  0.50000000  0.25000000  1
  Nd  Nd5  1  0.00000000  0.50000000  0.00000000  1
  Nd  Nd6  1  0.72944700  0.00000000  0.25000000  1
  Nd  Nd7  1  0.00000000  0.50000000  0.50000000  1
  Ti  Ti8  1  0.00000000  0.00000000  0.50000000  1
  Ti  Ti9  1  0.00000000  0.00000000  0.00000000  1
  Ti  Ti10  1  0.76213200  0.00000000  0.75000000  1
  Ti  Ti11  1  0.23786800  0.00000000  0.25000000  1
  Sb  Sb12  1  0.24493700  0.50000000  0.25000000  1
  Sb  Sb13  1  0.75506300  0.50000000  0.75000000  1
  Sb  Sb14  1  0.50000000  0.00000000  0.00000000  1
  Sb  Sb15  1  0.50000000  0.00000000  0.50000000  1
  O  O16  1  0.24861900  0.62856300  0.87289500  1
  O  O17  1  0.05330800  0.07159600  0.12240900  1
  O  O18  1  0.24989900  0.07559800  0.92444100  1
  O  O19  1  0.75138100  0.62856300  0.37289500  1
  O  O20  1  0.04626600  0.67815300  0.12282100  1
  O  O21  1  0.55486500  0.05646300  0.63092400  1
  O  O22  1  0.94669200  0.07159600  0.62240900  1
  O  O23  1  0.04626600  0.32184700  0.37717900  1
  O  O24  1  0.76819900  0.68105400  0.81924900  1
  O  O25  1  0.75010100  0.07559800  0.42444100  1
  O  O26  1  0.23180100  0.31894600  0.18075100  1
  O  O27  1  0.24989900  0.92440200  0.57555900  1
  O  O28  1  0.54899700  0.67288500  0.62771500  1
  O  O29  1  0.05330800  0.92840400  0.37759100  1
  O  O30  1  0.95373400  0.67815300  0.62282100  1
  O  O31  1  0.54899700  0.32711500  0.87228500  1
  O  O32  1  0.44513500  0.05646300  0.13092400  1
  O  O33  1  0.95373400  0.32184700  0.87717900  1
  O  O34  1  0.76819900  0.31894600  0.68075100  1
  O  O35  1  0.23180100  0.68105400  0.31924900  1
  O  O36  1  0.24861900  0.37143700  0.62710500  1
  O  O37  1  0.75010100  0.92440200  0.07555900  1
  O  O38  1  0.55486500  0.94353700  0.86907600  1
  O  O39  1  0.45100300  0.67288500  0.12771500  1
  O  O40  1  0.94669200  0.92840400  0.87759100  1
  O  O41  1  0.45100300  0.32711500  0.37228500  1
  O  O42  1  0.75138100  0.37143700  0.12710500  1
  O  O43  1  0.44513500  0.94353700  0.36907600  1
