# generated using pymatgen
data_Sm3S3N
_symmetry_space_group_name_H-M   'P 1'
_cell_length_a   3.95208400
_cell_length_b   12.20386700
_cell_length_c   13.10427800
_cell_angle_alpha   90.00000000
_cell_angle_beta   90.00000000
_cell_angle_gamma   90.00000000
_symmetry_Int_Tables_number   1
_chemical_formula_structural   Sm3S3N
_chemical_formula_sum   'Sm12 S12 N4'
_cell_volume   632.02859933
_cell_formula_units_Z   4
loop_
 _symmetry_equiv_pos_site_id
 _symmetry_equiv_pos_as_xyz
  1  'x, y, z'
loop_
 _atom_site_type_symbol
 _atom_site_label
 _atom_site_symmetry_multiplicity
 _atom_site_fract_x
 _atom_site_fract_y
 _atom_site_fract_z
 _atom_site_occupancy
  Sm  Sm0  1  0.25000000  0.54613300  0.64549200  1
  Sm  Sm1  1  0.75000000  0.45386700  0.35450800  1
  Sm  Sm2  1  0.25000000  0.04613300  0.85450800  1
  Sm  Sm3  1  0.75000000  0.95386700  0.14549200  1
  Sm  Sm4  1  0.25000000  0.71510900  0.36265500  1
  Sm  Sm5  1  0.75000000  0.28489100  0.63734500  1
  Sm  Sm6  1  0.25000000  0.21510900  0.13734500  1
  Sm  Sm7  1  0.75000000  0.78489100  0.86265500  1
  Sm  Sm8  1  0.25000000  0.07162500  0.36942200  1
  Sm  Sm9  1  0.75000000  0.92837500  0.63057800  1
  Sm  Sm10  1  0.25000000  0.57162500  0.13057800  1
  Sm  Sm11  1  0.75000000  0.42837500  0.86942200  1
  S  S12  1  0.75000000  0.72535700  0.19358100  1
  S  S13  1  0.75000000  0.91022300  0.39585800  1
  S  S14  1  0.25000000  0.58977700  0.89585800  1
  S  S15  1  0.25000000  0.08977700  0.60414200  1
  S  S16  1  0.25000000  0.86549400  0.99219800  1
  S  S17  1  0.75000000  0.13450600  0.00780200  1
  S  S18  1  0.25000000  0.36549400  0.50780200  1
  S  S19  1  0.75000000  0.63450600  0.49219800  1
  S  S20  1  0.25000000  0.27464300  0.80641900  1
  S  S21  1  0.75000000  0.22535700  0.30641900  1
  S  S22  1  0.25000000  0.77464300  0.69358100  1
  S  S23  1  0.75000000  0.41022300  0.10414200  1
  N  N24  1  0.75000000  0.96126700  0.79848600  1
  N  N25  1  0.25000000  0.53873300  0.29848600  1
  N  N26  1  0.75000000  0.46126700  0.70151400  1
  N  N27  1  0.25000000  0.03873300  0.20151400  1
