# generated using pymatgen
data_Nd(AgGe)2
_symmetry_space_group_name_H-M   'P 1'
_cell_length_a   6.36943556
_cell_length_b   6.36943556
_cell_length_c   6.36943556
_cell_angle_alpha   140.40885981
_cell_angle_beta   140.40885981
_cell_angle_gamma   57.23302646
_symmetry_Int_Tables_number   1
_chemical_formula_structural   Nd(AgGe)2
_chemical_formula_sum   'Nd1 Ag2 Ge2'
_cell_volume   104.06908607
_cell_formula_units_Z   1
loop_
 _symmetry_equiv_pos_site_id
 _symmetry_equiv_pos_as_xyz
  1  'x, y, z'
loop_
 _atom_site_type_symbol
 _atom_site_label
 _atom_site_symmetry_multiplicity
 _atom_site_fract_x
 _atom_site_fract_y
 _atom_site_fract_z
 _atom_site_occupancy
  Nd  Nd0  1  0.00000000  0.00000000  0.00000000  1
  Ag  Ag1  1  0.75000000  0.25000000  0.50000000  1
  Ag  Ag2  1  0.25000000  0.75000000  0.50000000  1
  Ge  Ge3  1  0.60991900  0.60991900  0.00000000  1
  Ge  Ge4  1  0.39008100  0.39008100  0.00000000  1
