# generated using pymatgen
data_Ca(CoGe)2
_symmetry_space_group_name_H-M   'P 1'
_cell_length_a   5.90474498
_cell_length_b   5.90474498
_cell_length_c   5.90474498
_cell_angle_alpha   140.65549687
_cell_angle_beta   140.65549687
_cell_angle_gamma   56.85935953
_symmetry_Int_Tables_number   1
_chemical_formula_structural   Ca(CoGe)2
_chemical_formula_sum   'Ca1 Co2 Ge2'
_cell_volume   82.06924737
_cell_formula_units_Z   1
loop_
 _symmetry_equiv_pos_site_id
 _symmetry_equiv_pos_as_xyz
  1  'x, y, z'
loop_
 _atom_site_type_symbol
 _atom_site_label
 _atom_site_symmetry_multiplicity
 _atom_site_fract_x
 _atom_site_fract_y
 _atom_site_fract_z
 _atom_site_occupancy
  Ca  Ca0  1  0.00000000  0.00000000  0.00000000  1
  Co  Co1  1  0.25000000  0.75000000  0.50000000  1
  Co  Co2  1  0.75000000  0.25000000  0.50000000  1
  Ge  Ge3  1  0.36852200  0.36852200  0.00000000  1
  Ge  Ge4  1  0.63147800  0.63147800  0.00000000  1
