# generated using pymatgen
data_CaGe2O5
_symmetry_space_group_name_H-M   'P 1'
_cell_length_a   5.80387900
_cell_length_b   7.44479700
_cell_length_c   8.38374900
_cell_angle_alpha   90.00000000
_cell_angle_beta   90.00000000
_cell_angle_gamma   90.00000000
_symmetry_Int_Tables_number   1
_chemical_formula_structural   CaGe2O5
_chemical_formula_sum   'Ca4 Ge8 O20'
_cell_volume   362.25090353
_cell_formula_units_Z   4
loop_
 _symmetry_equiv_pos_site_id
 _symmetry_equiv_pos_as_xyz
  1  'x, y, z'
loop_
 _atom_site_type_symbol
 _atom_site_label
 _atom_site_symmetry_multiplicity
 _atom_site_fract_x
 _atom_site_fract_y
 _atom_site_fract_z
 _atom_site_occupancy
  Ca  Ca0  1  0.50000000  0.36339500  0.16609200  1
  Ca  Ca1  1  0.50000000  0.63660500  0.83390800  1
  Ca  Ca2  1  0.50000000  0.86339500  0.33390800  1
  Ca  Ca3  1  0.50000000  0.13660500  0.66609200  1
  Ge  Ge4  1  0.00000000  0.60872300  0.14589500  1
  Ge  Ge5  1  0.00000000  0.39127700  0.85410500  1
  Ge  Ge6  1  0.00000000  0.10872300  0.35410500  1
  Ge  Ge7  1  0.00000000  0.89127700  0.64589500  1
  Ge  Ge8  1  0.25344200  0.50000000  0.50000000  1
  Ge  Ge9  1  0.74655800  0.00000000  0.00000000  1
  Ge  Ge10  1  0.74655800  0.50000000  0.50000000  1
  Ge  Ge11  1  0.25344200  0.00000000  0.00000000  1
  O  O12  1  0.00000000  0.84357200  0.07312200  1
  O  O13  1  0.00000000  0.15642800  0.92687800  1
  O  O14  1  0.00000000  0.34357200  0.42687800  1
  O  O15  1  0.00000000  0.65642800  0.57312200  1
  O  O16  1  0.50000000  0.34292500  0.44470800  1
  O  O17  1  0.50000000  0.65707500  0.55529200  1
  O  O18  1  0.50000000  0.84292500  0.05529200  1
  O  O19  1  0.50000000  0.15707500  0.94470800  1
  O  O20  1  0.20872300  0.50000000  0.00000000  1
  O  O21  1  0.79127700  0.00000000  0.50000000  1
  O  O22  1  0.79127700  0.50000000  0.00000000  1
  O  O23  1  0.20872300  0.00000000  0.50000000  1
  O  O24  1  0.24131400  0.10559700  0.20800400  1
  O  O25  1  0.24131400  0.89440300  0.79199600  1
  O  O26  1  0.75868600  0.60559700  0.29199600  1
  O  O27  1  0.75868600  0.39440300  0.70800400  1
  O  O28  1  0.75868600  0.89440300  0.79199600  1
  O  O29  1  0.75868600  0.10559700  0.20800400  1
  O  O30  1  0.24131400  0.39440300  0.70800400  1
  O  O31  1  0.24131400  0.60559700  0.29199600  1
