# generated using pymatgen
data_NaPrTiNbO6F
_symmetry_space_group_name_H-M   'P 1'
_cell_length_a   7.39259100
_cell_length_b   7.39259100
_cell_length_c   10.50183800
_cell_angle_alpha   90.00000000
_cell_angle_beta   90.00000000
_cell_angle_gamma   90.00000000
_symmetry_Int_Tables_number   1
_chemical_formula_structural   NaPrTiNbO6F
_chemical_formula_sum   'Na4 Pr4 Ti4 Nb4 O24 F4'
_cell_volume   573.92966522
_cell_formula_units_Z   4
loop_
 _symmetry_equiv_pos_site_id
 _symmetry_equiv_pos_as_xyz
  1  'x, y, z'
loop_
 _atom_site_type_symbol
 _atom_site_label
 _atom_site_symmetry_multiplicity
 _atom_site_fract_x
 _atom_site_fract_y
 _atom_site_fract_z
 _atom_site_occupancy
  Na  Na0  1  0.50000000  0.27402600  0.00000000  1
  Na  Na1  1  0.50000000  0.72597400  0.50000000  1
  Na  Na2  1  0.72597400  0.50000000  0.25000000  1
  Na  Na3  1  0.27402600  0.50000000  0.75000000  1
  Pr  Pr4  1  0.00000000  0.72629600  0.50000000  1
  Pr  Pr5  1  0.27370400  0.00000000  0.75000000  1
  Pr  Pr6  1  0.00000000  0.27370400  0.00000000  1
  Pr  Pr7  1  0.72629600  0.00000000  0.25000000  1
  Ti  Ti8  1  0.76487500  0.00000000  0.75000000  1
  Ti  Ti9  1  0.00000000  0.23512500  0.50000000  1
  Ti  Ti10  1  0.23512500  0.00000000  0.25000000  1
  Ti  Ti11  1  0.00000000  0.76487500  0.00000000  1
  Nb  Nb12  1  0.24325400  0.50000000  0.25000000  1
  Nb  Nb13  1  0.50000000  0.24325400  0.50000000  1
  Nb  Nb14  1  0.50000000  0.75674600  0.00000000  1
  Nb  Nb15  1  0.75674600  0.50000000  0.75000000  1
  O  O16  1  0.55812900  0.94707900  0.86796100  1
  O  O17  1  0.75146400  0.77232400  0.07099600  1
  O  O18  1  0.95820000  0.95820000  0.87500000  1
  O  O19  1  0.05292100  0.44187100  0.38203900  1
  O  O20  1  0.04180000  0.95820000  0.12500000  1
  O  O21  1  0.04180000  0.04180000  0.37500000  1
  O  O22  1  0.24853600  0.22767600  0.57099600  1
  O  O23  1  0.22767600  0.75146400  0.32099600  1
  O  O24  1  0.22767600  0.24853600  0.17900400  1
  O  O25  1  0.24853600  0.77232400  0.92900400  1
  O  O26  1  0.44187100  0.05292100  0.36796100  1
  O  O27  1  0.43784500  0.43784500  0.37500000  1
  O  O28  1  0.44187100  0.94707900  0.13203900  1
  O  O29  1  0.56215500  0.43784500  0.62500000  1
  O  O30  1  0.55812900  0.05292100  0.63203900  1
  O  O31  1  0.56215500  0.56215500  0.87500000  1
  O  O32  1  0.77232400  0.75146400  0.67900400  1
  O  O33  1  0.75146400  0.22767600  0.42900400  1
  O  O34  1  0.77232400  0.24853600  0.82099600  1
  O  O35  1  0.94707900  0.55812900  0.88203900  1
  O  O36  1  0.95820000  0.04180000  0.62500000  1
  O  O37  1  0.94707900  0.44187100  0.61796100  1
  O  O38  1  0.05292100  0.55812900  0.11796100  1
  O  O39  1  0.43784500  0.56215500  0.12500000  1
  F  F40  1  0.73898200  0.26101800  0.12500000  1
  F  F41  1  0.26101800  0.73898200  0.62500000  1
  F  F42  1  0.73898200  0.73898200  0.37500000  1
  F  F43  1  0.26101800  0.26101800  0.87500000  1
