# generated using pymatgen
data_TbNiGe2
_symmetry_space_group_name_H-M   'P 1'
_cell_length_a   8.55282057
_cell_length_b   8.55282057
_cell_length_c   4.19220200
_cell_angle_alpha   90.00000000
_cell_angle_beta   90.00000000
_cell_angle_gamma   151.97170000
_symmetry_Int_Tables_number   1
_chemical_formula_structural   TbNiGe2
_chemical_formula_sum   'Tb2 Ni2 Ge4'
_cell_volume   144.10312841
_cell_formula_units_Z   2
loop_
 _symmetry_equiv_pos_site_id
 _symmetry_equiv_pos_as_xyz
  1  'x, y, z'
loop_
 _atom_site_type_symbol
 _atom_site_label
 _atom_site_symmetry_multiplicity
 _atom_site_fract_x
 _atom_site_fract_y
 _atom_site_fract_z
 _atom_site_occupancy
  Tb  Tb0  1  0.89202300  0.10797700  0.25000000  1
  Tb  Tb1  1  0.10797700  0.89202300  0.75000000  1
  Ni  Ni2  1  0.68027400  0.31972600  0.25000000  1
  Ni  Ni3  1  0.31972600  0.68027400  0.75000000  1
  Ge  Ge4  1  0.54187400  0.45812600  0.25000000  1
  Ge  Ge5  1  0.45812600  0.54187400  0.75000000  1
  Ge  Ge6  1  0.25112600  0.74887400  0.25000000  1
  Ge  Ge7  1  0.74887400  0.25112600  0.75000000  1
