# generated using pymatgen
data_Na8BeAl4Si7(BrO12)2
_symmetry_space_group_name_H-M   'P 1'
_cell_length_a   9.04334400
_cell_length_b   9.04334400
_cell_length_c   9.09371800
_cell_angle_alpha   90.00000000
_cell_angle_beta   90.00000000
_cell_angle_gamma   90.00000000
_symmetry_Int_Tables_number   1
_chemical_formula_structural   Na8BeAl4Si7(BrO12)2
_chemical_formula_sum   'Na8 Be1 Al4 Si7 Br2 O24'
_cell_volume   743.70308842
_cell_formula_units_Z   1
loop_
 _symmetry_equiv_pos_site_id
 _symmetry_equiv_pos_as_xyz
  1  'x, y, z'
loop_
 _atom_site_type_symbol
 _atom_site_label
 _atom_site_symmetry_multiplicity
 _atom_site_fract_x
 _atom_site_fract_y
 _atom_site_fract_z
 _atom_site_occupancy
  Na  Na0  1  0.19421000  0.31492200  0.05892100  1
  Na  Na1  1  0.68507800  0.19421000  0.94107900  1
  Na  Na2  1  0.31492200  0.80579000  0.94107900  1
  Na  Na3  1  0.80579000  0.68507800  0.05892100  1
  Na  Na4  1  0.70904200  0.81381600  0.55481000  1
  Na  Na5  1  0.18618400  0.70904200  0.44519000  1
  Na  Na6  1  0.81381600  0.29095800  0.44519000  1
  Na  Na7  1  0.29095800  0.18618400  0.55481000  1
  Be  Be8  1  0.00000000  0.00000000  0.50000000  1
  Al  Al9  1  0.75216700  0.49949900  0.75014300  1
  Al  Al10  1  0.50050100  0.75216700  0.24985700  1
  Al  Al11  1  0.49949900  0.24783300  0.24985700  1
  Al  Al12  1  0.24783300  0.50050100  0.75014300  1
  Si  Si13  1  0.00000000  0.00000000  0.00000000  1
  Si  Si14  1  0.50000000  0.50000000  0.00000000  1
  Si  Si15  1  0.75886100  0.99669500  0.25465200  1
  Si  Si16  1  0.24113900  0.00330500  0.25465200  1
  Si  Si17  1  0.50000000  0.50000000  0.50000000  1
  Si  Si18  1  0.99669500  0.24113900  0.74534800  1
  Si  Si19  1  0.00330500  0.75886100  0.74534800  1
  Br  Br20  1  0.50000000  0.00000000  0.75261200  1
  Br  Br21  1  0.00000000  0.50000000  0.24738800  1
  O  O22  1  0.35414700  0.45691800  0.90429900  1
  O  O23  1  0.85425100  0.34043200  0.79504300  1
  O  O24  1  0.14574900  0.65956800  0.79504300  1
  O  O25  1  0.96152600  0.85577300  0.89902100  1
  O  O26  1  0.64585300  0.54308200  0.90429900  1
  O  O27  1  0.54308200  0.35414700  0.09570100  1
  O  O28  1  0.14422700  0.96152600  0.10097900  1
  O  O29  1  0.03847400  0.14422700  0.89902100  1
  O  O30  1  0.85577300  0.03847400  0.10097900  1
  O  O31  1  0.45691800  0.64585300  0.09570100  1
  O  O32  1  0.65956800  0.85425100  0.20495700  1
  O  O33  1  0.85674400  0.96003500  0.39645000  1
  O  O34  1  0.34084100  0.85602800  0.28377200  1
  O  O35  1  0.65915900  0.14397200  0.28377200  1
  O  O36  1  0.34043200  0.14574900  0.20495700  1
  O  O37  1  0.45663700  0.35296300  0.40476700  1
  O  O38  1  0.14325600  0.03996500  0.39645000  1
  O  O39  1  0.03996500  0.85674400  0.60355000  1
  O  O40  1  0.64703700  0.45663700  0.59523300  1
  O  O41  1  0.54336300  0.64703700  0.40476700  1
  O  O42  1  0.96003500  0.14325600  0.60355000  1
  O  O43  1  0.35296300  0.54336300  0.59523300  1
  O  O44  1  0.14397200  0.34084100  0.71622800  1
  O  O45  1  0.85602800  0.65915900  0.71622800  1
