# generated using pymatgen
data_Hg3AsO4
_symmetry_space_group_name_H-M   'P 1'
_cell_length_a   5.29483800
_cell_length_b   9.33114200
_cell_length_c   14.70215473
_cell_angle_alpha   56.90498001
_cell_angle_beta   90.00000000
_cell_angle_gamma   90.00000000
_symmetry_Int_Tables_number   1
_chemical_formula_structural   Hg3AsO4
_chemical_formula_sum   'Hg12 As4 O16'
_cell_volume   608.54302454
_cell_formula_units_Z   4
loop_
 _symmetry_equiv_pos_site_id
 _symmetry_equiv_pos_as_xyz
  1  'x, y, z'
loop_
 _atom_site_type_symbol
 _atom_site_label
 _atom_site_symmetry_multiplicity
 _atom_site_fract_x
 _atom_site_fract_y
 _atom_site_fract_z
 _atom_site_occupancy
  Hg  Hg0  1  0.15396300  0.45379600  0.37424800  1
  Hg  Hg1  1  0.36392200  0.72937300  0.95627100  1
  Hg  Hg2  1  0.13607800  0.72937300  0.45627100  1
  Hg  Hg3  1  0.63607800  0.27062700  0.04372900  1
  Hg  Hg4  1  0.86392200  0.27062700  0.54372900  1
  Hg  Hg5  1  0.65396300  0.54620400  0.12575200  1
  Hg  Hg6  1  0.84603700  0.54620400  0.62575200  1
  Hg  Hg7  1  0.34603700  0.45379600  0.87424800  1
  Hg  Hg8  1  0.36714900  0.96295100  0.58497300  1
  Hg  Hg9  1  0.86714900  0.03704900  0.91502700  1
  Hg  Hg10  1  0.63285100  0.03704900  0.41502700  1
  Hg  Hg11  1  0.13285100  0.96295100  0.08497300  1
  As  As12  1  0.11481000  0.22885800  0.22717800  1
  As  As13  1  0.88519000  0.77114200  0.77282200  1
  As  As14  1  0.61481000  0.77114200  0.27282200  1
  As  As15  1  0.38519000  0.22885800  0.72717800  1
  O  O16  1  0.55997900  0.76342400  0.77111600  1
  O  O17  1  0.05997900  0.23657600  0.72888400  1
  O  O18  1  0.44002100  0.23657600  0.22888400  1
  O  O19  1  0.94002100  0.76342400  0.27111600  1
  O  O20  1  0.97806300  0.77652200  0.88383000  1
  O  O21  1  0.47806300  0.22347800  0.61617000  1
  O  O22  1  0.02193700  0.22347800  0.11617000  1
  O  O23  1  0.52193700  0.77652200  0.38383000  1
  O  O24  1  0.98667700  0.95321900  0.65296900  1
  O  O25  1  0.49450500  0.59298500  0.27733200  1
  O  O26  1  0.01332300  0.04678100  0.34703100  1
  O  O27  1  0.51332300  0.95321900  0.15296900  1
  O  O28  1  0.00549500  0.59298500  0.77733200  1
  O  O29  1  0.50549500  0.40701500  0.72266800  1
  O  O30  1  0.99450500  0.40701500  0.22266800  1
  O  O31  1  0.48667700  0.04678100  0.84703100  1
