# generated using pymatgen
data_Sm3CrSe6
_symmetry_space_group_name_H-M   'P 1'
_cell_length_a   4.01683600
_cell_length_b   14.18595000
_cell_length_c   16.92531400
_cell_angle_alpha   90.00000000
_cell_angle_beta   90.00000000
_cell_angle_gamma   90.00000000
_symmetry_Int_Tables_number   1
_chemical_formula_structural   Sm3CrSe6
_chemical_formula_sum   'Sm12 Cr4 Se24'
_cell_volume   964.44898407
_cell_formula_units_Z   4
loop_
 _symmetry_equiv_pos_site_id
 _symmetry_equiv_pos_as_xyz
  1  'x, y, z'
loop_
 _atom_site_type_symbol
 _atom_site_label
 _atom_site_symmetry_multiplicity
 _atom_site_fract_x
 _atom_site_fract_y
 _atom_site_fract_z
 _atom_site_occupancy
  Sm  Sm0  1  0.50000000  0.74006400  0.59493000  1
  Sm  Sm1  1  0.50000000  0.25993600  0.40507000  1
  Sm  Sm2  1  0.00000000  0.24006400  0.90507000  1
  Sm  Sm3  1  0.00000000  0.75993600  0.09493000  1
  Sm  Sm4  1  0.50000000  0.94635800  0.77859200  1
  Sm  Sm5  1  0.50000000  0.05364200  0.22140800  1
  Sm  Sm6  1  0.00000000  0.44635800  0.72140800  1
  Sm  Sm7  1  0.00000000  0.55364200  0.27859200  1
  Sm  Sm8  1  0.50000000  0.17885900  0.64848900  1
  Sm  Sm9  1  0.50000000  0.82114100  0.35151100  1
  Sm  Sm10  1  0.00000000  0.67885900  0.85151100  1
  Sm  Sm11  1  0.00000000  0.32114100  0.14848900  1
  Cr  Cr12  1  0.50000000  0.50000000  0.50000000  1
  Cr  Cr13  1  0.00000000  0.00000000  0.00000000  1
  Cr  Cr14  1  0.50000000  0.50000000  0.00000000  1
  Cr  Cr15  1  0.00000000  0.00000000  0.50000000  1
  Se  Se16  1  0.50000000  0.97593800  0.59644700  1
  Se  Se17  1  0.50000000  0.02406200  0.40355300  1
  Se  Se18  1  0.00000000  0.47593800  0.90355300  1
  Se  Se19  1  0.00000000  0.52406200  0.09644700  1
  Se  Se20  1  0.50000000  0.07833100  0.92438500  1
  Se  Se21  1  0.50000000  0.92166900  0.07561500  1
  Se  Se22  1  0.00000000  0.57833100  0.57561500  1
  Se  Se23  1  0.00000000  0.42166900  0.42438500  1
  Se  Se24  1  0.00000000  0.10126800  0.75629500  1
  Se  Se25  1  0.00000000  0.89873200  0.24370500  1
  Se  Se26  1  0.50000000  0.60126800  0.74370500  1
  Se  Se27  1  0.50000000  0.39873200  0.25629500  1
  Se  Se28  1  0.00000000  0.12247100  0.10586300  1
  Se  Se29  1  0.00000000  0.87752900  0.89413700  1
  Se  Se30  1  0.50000000  0.62247100  0.39413700  1
  Se  Se31  1  0.50000000  0.37752900  0.60586300  1
  Se  Se32  1  0.00000000  0.19087600  0.29037700  1
  Se  Se33  1  0.00000000  0.80912400  0.70962300  1
  Se  Se34  1  0.50000000  0.69087600  0.20962300  1
  Se  Se35  1  0.50000000  0.30912400  0.79037700  1
  Se  Se36  1  0.00000000  0.17858200  0.52021100  1
  Se  Se37  1  0.00000000  0.82141800  0.47978900  1
  Se  Se38  1  0.50000000  0.67858200  0.97978900  1
  Se  Se39  1  0.50000000  0.32141800  0.02021100  1
