# generated using pymatgen
data_TlNO2
_symmetry_space_group_name_H-M   'P 1'
_cell_length_a   5.70338449
_cell_length_b   5.70338449
_cell_length_c   7.57327400
_cell_angle_alpha   90.00000000
_cell_angle_beta   90.00000000
_cell_angle_gamma   120.00000571
_symmetry_Int_Tables_number   1
_chemical_formula_structural   TlNO2
_chemical_formula_sum   'Tl3 N3 O6'
_cell_volume   213.34357947
_cell_formula_units_Z   3
loop_
 _symmetry_equiv_pos_site_id
 _symmetry_equiv_pos_as_xyz
  1  'x, y, z'
loop_
 _atom_site_type_symbol
 _atom_site_label
 _atom_site_symmetry_multiplicity
 _atom_site_fract_x
 _atom_site_fract_y
 _atom_site_fract_z
 _atom_site_occupancy
  Tl  Tl0  1  0.00000000  0.70192100  0.66666700  1
  Tl  Tl1  1  0.70192100  0.00000000  0.33333300  1
  Tl  Tl2  1  0.29807900  0.29807900  0.00000000  1
  N  N3  1  0.69450800  0.00000000  0.83333300  1
  N  N4  1  0.00000000  0.69450800  0.16666700  1
  N  N5  1  0.30549200  0.30549200  0.50000000  1
  O  O6  1  0.88211200  0.51585100  0.04795900  1
  O  O7  1  0.48414900  0.36626100  0.38129300  1
  O  O8  1  0.63373900  0.11788800  0.71462600  1
  O  O9  1  0.36626100  0.48414900  0.61870700  1
  O  O10  1  0.51585100  0.88211200  0.95204100  1
  O  O11  1  0.11788800  0.63373900  0.28537400  1
