# generated using pymatgen
data_Li8SnO6
_symmetry_space_group_name_H-M   'P 1'
_cell_length_a   6.06687679
_cell_length_b   6.06687679
_cell_length_c   6.06687712
_cell_angle_alpha   54.24312348
_cell_angle_beta   54.24312348
_cell_angle_gamma   54.24312180
_symmetry_Int_Tables_number   1
_chemical_formula_structural   Li8SnO6
_chemical_formula_sum   'Li8 Sn1 O6'
_cell_volume   136.68647556
_cell_formula_units_Z   1
loop_
 _symmetry_equiv_pos_site_id
 _symmetry_equiv_pos_as_xyz
  1  'x, y, z'
loop_
 _atom_site_type_symbol
 _atom_site_label
 _atom_site_symmetry_multiplicity
 _atom_site_fract_x
 _atom_site_fract_y
 _atom_site_fract_z
 _atom_site_occupancy
  Li  Li0  1  0.23458900  0.50511200  0.89955500  1
  Li  Li1  1  0.89955500  0.23458900  0.50511200  1
  Li  Li2  1  0.50511200  0.89955500  0.23458900  1
  Li  Li3  1  0.76541100  0.49488800  0.10044500  1
  Li  Li4  1  0.10044500  0.76541100  0.49488800  1
  Li  Li5  1  0.49488800  0.10044500  0.76541100  1
  Li  Li6  1  0.65533600  0.65533600  0.65533600  1
  Li  Li7  1  0.34466400  0.34466400  0.34466400  1
  Sn  Sn8  1  0.00000000  0.00000000  0.00000000  1
  O  O9  1  0.38461600  0.76490000  0.09378200  1
  O  O10  1  0.90621800  0.61538400  0.23510000  1
  O  O11  1  0.23510000  0.90621800  0.61538400  1
  O  O12  1  0.61538400  0.23510000  0.90621800  1
  O  O13  1  0.09378200  0.38461600  0.76490000  1
  O  O14  1  0.76490000  0.09378200  0.38461600  1
