# generated using pymatgen
data_NaCO2
_symmetry_space_group_name_H-M   'P 1'
_cell_length_a   5.29731500
_cell_length_b   3.55141300
_cell_length_c   10.60019148
_cell_angle_alpha   86.26029013
_cell_angle_beta   90.00000000
_cell_angle_gamma   90.00000000
_symmetry_Int_Tables_number   1
_chemical_formula_structural   NaCO2
_chemical_formula_sum   'Na4 C4 O8'
_cell_volume   198.99627168
_cell_formula_units_Z   4
loop_
 _symmetry_equiv_pos_site_id
 _symmetry_equiv_pos_as_xyz
  1  'x, y, z'
loop_
 _atom_site_type_symbol
 _atom_site_label
 _atom_site_symmetry_multiplicity
 _atom_site_fract_x
 _atom_site_fract_y
 _atom_site_fract_z
 _atom_site_occupancy
  Na  Na0  1  0.55683200  0.70210300  0.85592900  1
  Na  Na1  1  0.05683200  0.29789700  0.64407100  1
  Na  Na2  1  0.44316800  0.29789700  0.14407100  1
  Na  Na3  1  0.94316800  0.70210300  0.35592900  1
  C  C4  1  0.54390200  0.88672800  0.56301900  1
  C  C5  1  0.04390200  0.11327200  0.93698100  1
  C  C6  1  0.45609800  0.11327200  0.43698100  1
  C  C7  1  0.95609800  0.88672800  0.06301900  1
  O  O8  1  0.11753100  0.83825500  0.15111000  1
  O  O9  1  0.61753100  0.16174500  0.34889000  1
  O  O10  1  0.88246900  0.16174500  0.84889000  1
  O  O11  1  0.38246900  0.83825500  0.65111000  1
  O  O12  1  0.72991600  0.76968900  0.06710400  1
  O  O13  1  0.22991600  0.23031100  0.43289600  1
  O  O14  1  0.27008400  0.23031100  0.93289600  1
  O  O15  1  0.77008400  0.76968900  0.56710400  1
