# generated using pymatgen
data_Ce(TeO3)2
_symmetry_space_group_name_H-M   'P 1'
_cell_length_a   11.33018500
_cell_length_b   7.12645200
_cell_length_c   8.60851122
_cell_angle_alpha   55.30990159
_cell_angle_beta   90.00000000
_cell_angle_gamma   90.00000000
_symmetry_Int_Tables_number   1
_chemical_formula_structural   Ce(TeO3)2
_chemical_formula_sum   'Ce4 Te8 O24'
_cell_volume   571.52902096
_cell_formula_units_Z   4
loop_
 _symmetry_equiv_pos_site_id
 _symmetry_equiv_pos_as_xyz
  1  'x, y, z'
loop_
 _atom_site_type_symbol
 _atom_site_label
 _atom_site_symmetry_multiplicity
 _atom_site_fract_x
 _atom_site_fract_y
 _atom_site_fract_z
 _atom_site_occupancy
  Ce  Ce0  1  0.40860300  0.26139500  0.49851300  1
  Ce  Ce1  1  0.90860300  0.73860500  0.00148700  1
  Ce  Ce2  1  0.59139700  0.73860500  0.50148700  1
  Ce  Ce3  1  0.09139700  0.26139500  0.99851300  1
  Te  Te4  1  0.08142500  0.26774700  0.45927900  1
  Te  Te5  1  0.58142500  0.73225300  0.04072100  1
  Te  Te6  1  0.91857500  0.73225300  0.54072100  1
  Te  Te7  1  0.41857500  0.26774700  0.95927900  1
  Te  Te8  1  0.22361300  0.81092400  0.93088800  1
  Te  Te9  1  0.72361300  0.18907600  0.56911200  1
  Te  Te10  1  0.77638700  0.18907600  0.06911200  1
  Te  Te11  1  0.27638700  0.81092400  0.43088800  1
  O  O12  1  0.22428600  0.43849700  0.37581400  1
  O  O13  1  0.72428600  0.56150300  0.12418600  1
  O  O14  1  0.77571400  0.56150300  0.62418600  1
  O  O15  1  0.27571400  0.43849700  0.87581400  1
  O  O16  1  0.40253000  0.13615700  0.81753200  1
  O  O17  1  0.90253000  0.86384300  0.68246800  1
  O  O18  1  0.59747000  0.86384300  0.18246800  1
  O  O19  1  0.09747000  0.13615700  0.31753200  1
  O  O20  1  0.47798700  0.47842500  0.20407300  1
  O  O21  1  0.97798700  0.52157500  0.29592700  1
  O  O22  1  0.52201300  0.52157500  0.79592700  1
  O  O23  1  0.02201300  0.47842500  0.70407300  1
  O  O24  1  0.25322900  0.97429700  0.16501900  1
  O  O25  1  0.75322900  0.02570300  0.33498100  1
  O  O26  1  0.74677100  0.02570300  0.83498100  1
  O  O27  1  0.24677100  0.97429700  0.66501900  1
  O  O28  1  0.40154600  0.00597400  0.40953100  1
  O  O29  1  0.90154600  0.99402600  0.09046900  1
  O  O30  1  0.59845400  0.99402600  0.59046900  1
  O  O31  1  0.09845400  0.00597400  0.90953100  1
  O  O32  1  0.40239500  0.61200300  0.46019200  1
  O  O33  1  0.90239500  0.38799700  0.03980800  1
  O  O34  1  0.59760500  0.38799700  0.53980800  1
  O  O35  1  0.09760500  0.61200300  0.96019200  1
