# generated using pymatgen
data_ZnSeO3
_symmetry_space_group_name_H-M   'P 1'
_cell_length_a   5.13579700
_cell_length_b   6.00400900
_cell_length_c   7.81048900
_cell_angle_alpha   90.00000000
_cell_angle_beta   90.00000000
_cell_angle_gamma   90.00000000
_symmetry_Int_Tables_number   1
_chemical_formula_structural   ZnSeO3
_chemical_formula_sum   'Zn4 Se4 O12'
_cell_volume   240.83932921
_cell_formula_units_Z   4
loop_
 _symmetry_equiv_pos_site_id
 _symmetry_equiv_pos_as_xyz
  1  'x, y, z'
loop_
 _atom_site_type_symbol
 _atom_site_label
 _atom_site_symmetry_multiplicity
 _atom_site_fract_x
 _atom_site_fract_y
 _atom_site_fract_z
 _atom_site_occupancy
  Zn  Zn0  1  0.50000000  0.00000000  0.50000000  1
  Zn  Zn1  1  0.00000000  0.50000000  0.50000000  1
  Zn  Zn2  1  0.00000000  0.50000000  0.00000000  1
  Zn  Zn3  1  0.50000000  0.00000000  0.00000000  1
  Se  Se4  1  0.01533400  0.97164300  0.75000000  1
  Se  Se5  1  0.51533400  0.52835700  0.25000000  1
  Se  Se6  1  0.48466600  0.47164300  0.75000000  1
  Se  Se7  1  0.98466600  0.02835700  0.25000000  1
  O  O8  1  0.86635900  0.18886300  0.42188700  1
  O  O9  1  0.36635900  0.31113700  0.57811300  1
  O  O10  1  0.63364100  0.68886300  0.07811300  1
  O  O11  1  0.13364100  0.81113700  0.92188700  1
  O  O12  1  0.13364100  0.81113700  0.57811300  1
  O  O13  1  0.63364100  0.68886300  0.42188700  1
  O  O14  1  0.36635900  0.31113700  0.92188700  1
  O  O15  1  0.86635900  0.18886300  0.07811300  1
  O  O16  1  0.31991800  0.07826200  0.25000000  1
  O  O17  1  0.81991800  0.42173800  0.75000000  1
  O  O18  1  0.18008200  0.57826200  0.25000000  1
  O  O19  1  0.68008200  0.92173800  0.75000000  1
