# generated using pymatgen
data_RbSb3Se5
_symmetry_space_group_name_H-M   'P 1'
_cell_length_a   13.40075800
_cell_length_b   8.88771000
_cell_length_c   12.42516400
_cell_angle_alpha   51.95072195
_cell_angle_beta   90.00000000
_cell_angle_gamma   90.00000000
_symmetry_Int_Tables_number   1
_chemical_formula_structural   RbSb3Se5
_chemical_formula_sum   'Rb4 Sb12 Se20'
_cell_volume   1165.36354504
_cell_formula_units_Z   4
loop_
 _symmetry_equiv_pos_site_id
 _symmetry_equiv_pos_as_xyz
  1  'x, y, z'
loop_
 _atom_site_type_symbol
 _atom_site_label
 _atom_site_symmetry_multiplicity
 _atom_site_fract_x
 _atom_site_fract_y
 _atom_site_fract_z
 _atom_site_occupancy
  Rb  Rb0  1  0.75166700  0.32263400  0.30238300  1
  Rb  Rb1  1  0.25166700  0.67736600  0.19761700  1
  Rb  Rb2  1  0.24833300  0.67736600  0.69761700  1
  Rb  Rb3  1  0.74833300  0.32263400  0.80238300  1
  Sb  Sb4  1  0.04107700  0.18617400  0.82173000  1
  Sb  Sb5  1  0.54107700  0.81382600  0.67827000  1
  Sb  Sb6  1  0.95892300  0.81382600  0.17827000  1
  Sb  Sb7  1  0.45892300  0.18617400  0.32173000  1
  Sb  Sb8  1  0.05982300  0.14121900  0.54007000  1
  Sb  Sb9  1  0.55982300  0.85878100  0.95993000  1
  Sb  Sb10  1  0.94017700  0.85878100  0.45993000  1
  Sb  Sb11  1  0.44017700  0.14121900  0.04007000  1
  Sb  Sb12  1  0.59774700  0.75368300  0.36957900  1
  Sb  Sb13  1  0.09774700  0.24631700  0.13042100  1
  Sb  Sb14  1  0.40225300  0.24631700  0.63042100  1
  Sb  Sb15  1  0.90225300  0.75368300  0.86957900  1
  Se  Se16  1  0.81105300  0.82172500  0.03565500  1
  Se  Se17  1  0.31105300  0.17827500  0.46434500  1
  Se  Se18  1  0.18894700  0.17827500  0.96434500  1
  Se  Se19  1  0.68894700  0.82172500  0.53565500  1
  Se  Se20  1  0.08578900  0.82478300  0.90141800  1
  Se  Se21  1  0.58578900  0.17521700  0.59858200  1
  Se  Se22  1  0.91421100  0.17521700  0.09858200  1
  Se  Se23  1  0.41421100  0.82478300  0.40141800  1
  Se  Se24  1  0.87844500  0.10998900  0.64415400  1
  Se  Se25  1  0.37844500  0.89001100  0.85584600  1
  Se  Se26  1  0.12155500  0.89001100  0.35584600  1
  Se  Se27  1  0.62155500  0.10998900  0.14415400  1
  Se  Se28  1  0.14466900  0.35707100  0.59494700  1
  Se  Se29  1  0.64466900  0.64292900  0.90505300  1
  Se  Se30  1  0.85533100  0.64292900  0.40505300  1
  Se  Se31  1  0.35533100  0.35707100  0.09494700  1
  Se  Se32  1  0.48179800  0.40168200  0.78607400  1
  Se  Se33  1  0.98179800  0.59831800  0.71392600  1
  Se  Se34  1  0.51820200  0.59831800  0.21392600  1
  Se  Se35  1  0.01820200  0.40168200  0.28607400  1
