# generated using pymatgen
data_NaPO3
_symmetry_space_group_name_H-M   'P 1'
_cell_length_a   6.25645500
_cell_length_b   7.08626000
_cell_length_c   14.03222945
_cell_angle_alpha   61.33092031
_cell_angle_beta   90.00000000
_cell_angle_gamma   90.00000000
_symmetry_Int_Tables_number   1
_chemical_formula_structural   NaPO3
_chemical_formula_sum   'Na8 P8 O24'
_cell_volume   545.84870774
_cell_formula_units_Z   8
loop_
 _symmetry_equiv_pos_site_id
 _symmetry_equiv_pos_as_xyz
  1  'x, y, z'
loop_
 _atom_site_type_symbol
 _atom_site_label
 _atom_site_symmetry_multiplicity
 _atom_site_fract_x
 _atom_site_fract_y
 _atom_site_fract_z
 _atom_site_occupancy
  Na  Na0  1  0.62621500  0.49599600  0.63181600  1
  Na  Na1  1  0.12621500  0.50400400  0.86818400  1
  Na  Na2  1  0.37378500  0.50400400  0.36818400  1
  Na  Na3  1  0.87378500  0.49599600  0.13181600  1
  Na  Na4  1  0.12101500  0.75871300  0.50465700  1
  Na  Na5  1  0.62101500  0.24128700  0.99534300  1
  Na  Na6  1  0.87898500  0.24128700  0.49534300  1
  Na  Na7  1  0.37898500  0.75871300  0.00465700  1
  P  P8  1  0.13327800  0.27636300  0.71463000  1
  P  P9  1  0.63327800  0.72363700  0.78537000  1
  P  P10  1  0.86672200  0.72363700  0.28537000  1
  P  P11  1  0.36672200  0.27636300  0.21463000  1
  P  P12  1  0.37112400  0.07252300  0.61011200  1
  P  P13  1  0.87112400  0.92747700  0.88988800  1
  P  P14  1  0.62887600  0.92747700  0.38988800  1
  P  P15  1  0.12887600  0.07252300  0.11011200  1
  O  O16  1  0.97873300  0.26067500  0.05520600  1
  O  O17  1  0.47873300  0.73932500  0.44479400  1
  O  O18  1  0.02126700  0.73932500  0.94479400  1
  O  O19  1  0.52126700  0.26067500  0.55520600  1
  O  O20  1  0.29602400  0.04249500  0.04228500  1
  O  O21  1  0.79602400  0.95750500  0.45771500  1
  O  O22  1  0.70397600  0.95750500  0.95771500  1
  O  O23  1  0.20397600  0.04249500  0.54228500  1
  O  O24  1  0.99508300  0.85048500  0.17165500  1
  O  O25  1  0.49508300  0.14951500  0.32834500  1
  O  O26  1  0.00491700  0.14951500  0.82834500  1
  O  O27  1  0.50491700  0.85048500  0.67165500  1
  O  O28  1  0.51950700  0.37412400  0.12037200  1
  O  O29  1  0.01950700  0.62587600  0.37962800  1
  O  O30  1  0.48049300  0.62587600  0.87962800  1
  O  O31  1  0.98049300  0.37412400  0.62037200  1
  O  O32  1  0.28813500  0.42294300  0.72852500  1
  O  O33  1  0.78813500  0.57705700  0.77147500  1
  O  O34  1  0.71186500  0.57705700  0.27147500  1
  O  O35  1  0.21186500  0.42294300  0.22852500  1
  O  O36  1  0.26046000  0.07548400  0.71470000  1
  O  O37  1  0.76046000  0.92451600  0.78530000  1
  O  O38  1  0.73954000  0.92451600  0.28530000  1
  O  O39  1  0.23954000  0.07548400  0.21470000  1
