# generated using pymatgen
data_Ca11(CN5)2
_symmetry_space_group_name_H-M   'P 1'
_cell_length_a   14.57016200
_cell_length_b   14.57016200
_cell_length_c   3.61379900
_cell_angle_alpha   90.00000000
_cell_angle_beta   90.00000000
_cell_angle_gamma   90.00000000
_symmetry_Int_Tables_number   1
_chemical_formula_structural   Ca11(CN5)2
_chemical_formula_sum   'Ca22 C4 N20'
_cell_volume   767.17201902
_cell_formula_units_Z   2
loop_
 _symmetry_equiv_pos_site_id
 _symmetry_equiv_pos_as_xyz
  1  'x, y, z'
loop_
 _atom_site_type_symbol
 _atom_site_label
 _atom_site_symmetry_multiplicity
 _atom_site_fract_x
 _atom_site_fract_y
 _atom_site_fract_z
 _atom_site_occupancy
  Ca  Ca0  1  0.60633900  0.88172500  0.00000000  1
  Ca  Ca1  1  0.39366100  0.11827500  0.00000000  1
  Ca  Ca2  1  0.61827500  0.10633900  0.50000000  1
  Ca  Ca3  1  0.38172500  0.89366100  0.50000000  1
  Ca  Ca4  1  0.88172500  0.60633900  0.00000000  1
  Ca  Ca5  1  0.10633900  0.61827500  0.50000000  1
  Ca  Ca6  1  0.89366100  0.38172500  0.50000000  1
  Ca  Ca7  1  0.11827500  0.39366100  0.00000000  1
  Ca  Ca8  1  0.16725200  0.83274800  0.00000000  1
  Ca  Ca9  1  0.33274800  0.33274800  0.50000000  1
  Ca  Ca10  1  0.66725200  0.66725200  0.50000000  1
  Ca  Ca11  1  0.83274800  0.16725200  0.00000000  1
  Ca  Ca12  1  0.70478800  0.48042800  0.00000000  1
  Ca  Ca13  1  0.29521200  0.51957200  0.00000000  1
  Ca  Ca14  1  0.01957200  0.20478800  0.50000000  1
  Ca  Ca15  1  0.98042800  0.79521200  0.50000000  1
  Ca  Ca16  1  0.48042800  0.70478800  0.00000000  1
  Ca  Ca17  1  0.20478800  0.01957200  0.50000000  1
  Ca  Ca18  1  0.79521200  0.98042800  0.50000000  1
  Ca  Ca19  1  0.51957200  0.29521200  0.00000000  1
  Ca  Ca20  1  0.50000000  0.50000000  0.50000000  1
  Ca  Ca21  1  0.00000000  0.00000000  0.00000000  1
  C  C22  1  0.81579800  0.81579800  0.00000000  1
  C  C23  1  0.31579800  0.68420200  0.50000000  1
  C  C24  1  0.68420200  0.31579800  0.50000000  1
  C  C25  1  0.18420200  0.18420200  0.00000000  1
  N  N26  1  0.87626500  0.87626500  0.00000000  1
  N  N27  1  0.37626500  0.62373500  0.50000000  1
  N  N28  1  0.62373500  0.37626500  0.50000000  1
  N  N29  1  0.12373500  0.12373500  0.00000000  1
  N  N30  1  0.75584100  0.75584100  0.00000000  1
  N  N31  1  0.25584100  0.74415900  0.50000000  1
  N  N32  1  0.74415900  0.25584100  0.50000000  1
  N  N33  1  0.24415900  0.24415900  0.00000000  1
  N  N34  1  0.31123000  0.97201100  0.00000000  1
  N  N35  1  0.68877000  0.02798900  0.00000000  1
  N  N36  1  0.52798900  0.81123000  0.50000000  1
  N  N37  1  0.47201100  0.18877000  0.50000000  1
  N  N38  1  0.97201100  0.31123000  0.00000000  1
  N  N39  1  0.81123000  0.52798900  0.50000000  1
  N  N40  1  0.18877000  0.47201100  0.50000000  1
  N  N41  1  0.02798900  0.68877000  0.00000000  1
  N  N42  1  0.58976900  0.58976900  0.00000000  1
  N  N43  1  0.08976900  0.91023100  0.50000000  1
  N  N44  1  0.41023100  0.41023100  0.00000000  1
  N  N45  1  0.91023100  0.08976900  0.50000000  1
