# generated using pymatgen
data_ZrSiO4
_symmetry_space_group_name_H-M   'P 1'
_cell_length_a   5.62319397
_cell_length_b   5.62319397
_cell_length_c   5.62319397
_cell_angle_alpha   106.76857500
_cell_angle_beta   106.76857500
_cell_angle_gamma   115.02328906
_symmetry_Int_Tables_number   1
_chemical_formula_structural   ZrSiO4
_chemical_formula_sum   'Zr2 Si2 O8'
_cell_volume   135.90265916
_cell_formula_units_Z   2
loop_
 _symmetry_equiv_pos_site_id
 _symmetry_equiv_pos_as_xyz
  1  'x, y, z'
loop_
 _atom_site_type_symbol
 _atom_site_label
 _atom_site_symmetry_multiplicity
 _atom_site_fract_x
 _atom_site_fract_y
 _atom_site_fract_z
 _atom_site_occupancy
  Zr  Zr0  1  0.50000000  0.50000000  0.00000000  1
  Zr  Zr1  1  0.75000000  0.25000000  0.50000000  1
  Si  Si2  1  0.00000000  0.00000000  0.00000000  1
  Si  Si3  1  0.25000000  0.75000000  0.50000000  1
  O  O4  1  0.82007500  0.63689000  0.81681500  1
  O  O5  1  0.25326000  0.57007500  0.68318500  1
  O  O6  1  0.88689000  0.57007500  0.31681500  1
  O  O7  1  0.82007500  0.00326000  0.18318500  1
  O  O8  1  0.99674000  0.17992500  0.81681500  1
  O  O9  1  0.42992500  0.11311000  0.68318500  1
  O  O10  1  0.42992500  0.74674000  0.31681500  1
  O  O11  1  0.36311000  0.17992500  0.18318500  1
