# generated using pymatgen
data_LaAsO4
_symmetry_space_group_name_H-M   'P 1'
_cell_length_a   7.30217600
_cell_length_b   6.85237400
_cell_length_c   8.50660253
_cell_angle_alpha   53.92017255
_cell_angle_beta   90.00000000
_cell_angle_gamma   90.00000000
_symmetry_Int_Tables_number   1
_chemical_formula_structural   LaAsO4
_chemical_formula_sum   'La4 As4 O16'
_cell_volume   344.00668212
_cell_formula_units_Z   4
loop_
 _symmetry_equiv_pos_site_id
 _symmetry_equiv_pos_as_xyz
  1  'x, y, z'
loop_
 _atom_site_type_symbol
 _atom_site_label
 _atom_site_symmetry_multiplicity
 _atom_site_fract_x
 _atom_site_fract_y
 _atom_site_fract_z
 _atom_site_occupancy
  La  La0  1  0.65289400  0.81195400  0.28390200  1
  La  La1  1  0.15289400  0.18804600  0.21609800  1
  La  La2  1  0.34710600  0.18804600  0.71609800  1
  La  La3  1  0.84710600  0.81195400  0.78390200  1
  As  As4  1  0.66208300  0.30786800  0.30387900  1
  As  As5  1  0.16208300  0.69213200  0.19612100  1
  As  As6  1  0.33791700  0.69213200  0.69612100  1
  As  As7  1  0.83791700  0.30786800  0.80387900  1
  O  O8  1  0.60543300  0.34666200  0.48076400  1
  O  O9  1  0.10543300  0.65333800  0.01923600  1
  O  O10  1  0.39456700  0.65333800  0.51923600  1
  O  O11  1  0.89456700  0.34666200  0.98076400  1
  O  O12  1  0.84136300  0.10508000  0.39180100  1
  O  O13  1  0.34136300  0.89492000  0.10819900  1
  O  O14  1  0.15863700  0.89492000  0.60819900  1
  O  O15  1  0.65863700  0.10508000  0.89180100  1
  O  O16  1  0.78735400  0.60211400  0.61814900  1
  O  O17  1  0.28735400  0.39788600  0.88185100  1
  O  O18  1  0.21264600  0.39788600  0.38185100  1
  O  O19  1  0.71264600  0.60211400  0.11814900  1
  O  O20  1  0.00334600  0.17281000  0.75387700  1
  O  O21  1  0.50334600  0.82719000  0.74612300  1
  O  O22  1  0.99665400  0.82719000  0.24612300  1
  O  O23  1  0.49665400  0.17281000  0.25387700  1
