# generated using pymatgen
data_SrSi2
_symmetry_space_group_name_H-M   'P 1'
_cell_length_a   6.56379900
_cell_length_b   6.56379900
_cell_length_c   6.56379900
_cell_angle_alpha   90.00000000
_cell_angle_beta   90.00000000
_cell_angle_gamma   90.00000000
_symmetry_Int_Tables_number   1
_chemical_formula_structural   SrSi2
_chemical_formula_sum   'Sr4 Si8'
_cell_volume   282.79115402
_cell_formula_units_Z   4
loop_
 _symmetry_equiv_pos_site_id
 _symmetry_equiv_pos_as_xyz
  1  'x, y, z'
loop_
 _atom_site_type_symbol
 _atom_site_label
 _atom_site_symmetry_multiplicity
 _atom_site_fract_x
 _atom_site_fract_y
 _atom_site_fract_z
 _atom_site_occupancy
  Sr  Sr0  1  0.62500000  0.37500000  0.87500000  1
  Sr  Sr1  1  0.37500000  0.87500000  0.62500000  1
  Sr  Sr2  1  0.87500000  0.62500000  0.37500000  1
  Sr  Sr3  1  0.12500000  0.12500000  0.12500000  1
  Si  Si4  1  0.82790700  0.82790700  0.82790700  1
  Si  Si5  1  0.57790700  0.92209300  0.07790700  1
  Si  Si6  1  0.92209300  0.07790700  0.57790700  1
  Si  Si7  1  0.07790700  0.57790700  0.92209300  1
  Si  Si8  1  0.42209300  0.42209300  0.42209300  1
  Si  Si9  1  0.17209300  0.32790700  0.67209300  1
  Si  Si10  1  0.67209300  0.17209300  0.32790700  1
  Si  Si11  1  0.32790700  0.67209300  0.17209300  1
