# generated using pymatgen
data_BaTi6O13
_symmetry_space_group_name_H-M   'P 1'
_cell_length_a   7.57115500
_cell_length_b   7.62492235
_cell_length_c   10.00514641
_cell_angle_alpha   72.36554478
_cell_angle_beta   74.45990668
_cell_angle_gamma   60.72659768
_symmetry_Int_Tables_number   1
_chemical_formula_structural   BaTi6O13
_chemical_formula_sum   'Ba2 Ti12 O26'
_cell_volume   475.14511098
_cell_formula_units_Z   2
loop_
 _symmetry_equiv_pos_site_id
 _symmetry_equiv_pos_as_xyz
  1  'x, y, z'
loop_
 _atom_site_type_symbol
 _atom_site_label
 _atom_site_symmetry_multiplicity
 _atom_site_fract_x
 _atom_site_fract_y
 _atom_site_fract_z
 _atom_site_occupancy
  Ba  Ba0  1  0.67621900  0.03116000  0.13173100  1
  Ba  Ba1  1  0.32378100  0.96884000  0.86826900  1
  Ti  Ti2  1  0.20745700  0.46035200  0.01861500  1
  Ti  Ti3  1  0.13078000  0.27530500  0.49621800  1
  Ti  Ti4  1  0.92088300  0.91492600  0.76897200  1
  Ti  Ti5  1  0.31806800  0.62786400  0.24851300  1
  Ti  Ti6  1  0.79254300  0.53964800  0.98138500  1
  Ti  Ti7  1  0.24767200  0.49139500  0.71997400  1
  Ti  Ti8  1  0.40702100  0.84565600  0.49614800  1
  Ti  Ti9  1  0.68193200  0.37213600  0.75148700  1
  Ti  Ti10  1  0.75232800  0.50860500  0.28002600  1
  Ti  Ti11  1  0.07911700  0.08507400  0.23102800  1
  Ti  Ti12  1  0.86922000  0.72469500  0.50378200  1
  Ti  Ti13  1  0.59297900  0.15434400  0.50385200  1
  O  O14  1  0.16877600  0.01128400  0.61201400  1
  O  O15  1  0.56280600  0.67409300  0.14104100  1
  O  O16  1  0.98295400  0.27692100  0.36594100  1
  O  O17  1  0.11890200  0.55458700  0.39113900  1
  O  O18  1  0.36731000  0.45973600  0.12768200  1
  O  O19  1  0.15408300  0.70892000  0.86117200  1
  O  O20  1  0.83122400  0.98871600  0.38798600  1
  O  O21  1  0.12744900  0.86960300  0.14777300  1
  O  O22  1  0.25985100  0.17158400  0.10905000  1
  O  O23  1  0.01704600  0.72307900  0.63405900  1
  O  O24  1  0.72335300  0.15052200  0.63937300  1
  O  O25  1  0.63269000  0.54026400  0.87231800  1
  O  O26  1  0.69087700  0.71090100  0.37636200  1
  O  O27  1  0.94415300  0.58224000  0.11674200  1
  O  O28  1  0.27664700  0.84947800  0.36062700  1
  O  O29  1  0.60213700  0.87399000  0.59940200  1
  O  O30  1  0.74014900  0.82841600  0.89095000  1
  O  O31  1  0.30912300  0.28909900  0.62363800  1
  O  O32  1  0.45229200  0.58656100  0.62589400  1
  O  O33  1  0.39786300  0.12601000  0.40059800  1
  O  O34  1  0.88109800  0.44541300  0.60886100  1
  O  O35  1  0.87255100  0.13039700  0.85222700  1
  O  O36  1  0.84591700  0.29108000  0.13882800  1
  O  O37  1  0.05584700  0.41776000  0.88325800  1
  O  O38  1  0.54770800  0.41343900  0.37410600  1
  O  O39  1  0.43719400  0.32590700  0.85895900  1
