# generated using pymatgen
data_NaH4ClO2
_symmetry_space_group_name_H-M   'P 1'
_cell_length_a   10.18512100
_cell_length_b   6.46173500
_cell_length_c   6.60376315
_cell_angle_alpha   65.20114887
_cell_angle_beta   90.00000000
_cell_angle_gamma   90.00000000
_symmetry_Int_Tables_number   1
_chemical_formula_structural   NaH4ClO2
_chemical_formula_sum   'Na4 H16 Cl4 O8'
_cell_volume   394.53928404
_cell_formula_units_Z   4
loop_
 _symmetry_equiv_pos_site_id
 _symmetry_equiv_pos_as_xyz
  1  'x, y, z'
loop_
 _atom_site_type_symbol
 _atom_site_label
 _atom_site_symmetry_multiplicity
 _atom_site_fract_x
 _atom_site_fract_y
 _atom_site_fract_z
 _atom_site_occupancy
  Na  Na0  1  0.83177400  0.02774200  0.54537800  1
  Na  Na1  1  0.33177400  0.97225800  0.95462200  1
  Na  Na2  1  0.16822600  0.97225800  0.45462200  1
  Na  Na3  1  0.66822600  0.02774200  0.04537800  1
  H  H4  1  0.59045900  0.77599000  0.77854000  1
  H  H5  1  0.09045900  0.22401000  0.72146000  1
  H  H6  1  0.40954100  0.22401000  0.22146000  1
  H  H7  1  0.90954100  0.77599000  0.27854000  1
  H  H8  1  0.70211800  0.63733600  0.93552000  1
  H  H9  1  0.20211800  0.36266400  0.56448000  1
  H  H10  1  0.29788200  0.36266400  0.06448000  1
  H  H11  1  0.79788200  0.63733600  0.43552000  1
  H  H12  1  0.47631700  0.38138200  0.75140200  1
  H  H13  1  0.97631700  0.61861800  0.74859800  1
  H  H14  1  0.52368300  0.61861800  0.24859800  1
  H  H15  1  0.02368300  0.38138200  0.25140200  1
  H  H16  1  0.53920900  0.25333100  0.61819000  1
  H  H17  1  0.03920900  0.74666900  0.88181000  1
  H  H18  1  0.46079100  0.74666900  0.38181000  1
  H  H19  1  0.96079100  0.25333100  0.11819000  1
  Cl  Cl20  1  0.88537800  0.29502300  0.79090800  1
  Cl  Cl21  1  0.38537800  0.70497700  0.70909200  1
  Cl  Cl22  1  0.11462200  0.70497700  0.20909200  1
  Cl  Cl23  1  0.61462200  0.29502300  0.29090800  1
  O  O24  1  0.68036500  0.79179600  0.82706000  1
  O  O25  1  0.18036500  0.20820400  0.67294000  1
  O  O26  1  0.31963500  0.20820400  0.17294000  1
  O  O27  1  0.81963500  0.79179600  0.32706000  1
  O  O28  1  0.50885800  0.23109100  0.76797500  1
  O  O29  1  0.00885800  0.76890900  0.73202500  1
  O  O30  1  0.49114200  0.76890900  0.23202500  1
  O  O31  1  0.99114200  0.23109100  0.26797500  1
