# generated using pymatgen
data_YInO3
_symmetry_space_group_name_H-M   'P 1'
_cell_length_a   6.36381349
_cell_length_b   6.36381349
_cell_length_c   12.38968600
_cell_angle_alpha   90.00000000
_cell_angle_beta   90.00000000
_cell_angle_gamma   119.99999470
_symmetry_Int_Tables_number   1
_chemical_formula_structural   YInO3
_chemical_formula_sum   'Y6 In6 O18'
_cell_volume   434.53607838
_cell_formula_units_Z   6
loop_
 _symmetry_equiv_pos_site_id
 _symmetry_equiv_pos_as_xyz
  1  'x, y, z'
loop_
 _atom_site_type_symbol
 _atom_site_label
 _atom_site_symmetry_multiplicity
 _atom_site_fract_x
 _atom_site_fract_y
 _atom_site_fract_z
 _atom_site_occupancy
  Y  Y0  1  0.00000000  0.00000000  0.27105000  1
  Y  Y1  1  0.00000000  0.00000000  0.77105000  1
  Y  Y2  1  0.33333300  0.66666700  0.23560600  1
  Y  Y3  1  0.66666700  0.33333300  0.73560600  1
  Y  Y4  1  0.33333300  0.66666700  0.73560600  1
  Y  Y5  1  0.66666700  0.33333300  0.23560600  1
  In  In6  1  0.33351900  0.00000000  0.00110300  1
  In  In7  1  0.33351900  0.33351900  0.50110300  1
  In  In8  1  0.00000000  0.66648100  0.50110300  1
  In  In9  1  0.00000000  0.33351900  0.00110300  1
  In  In10  1  0.66648100  0.66648100  0.00110300  1
  In  In11  1  0.66648100  0.00000000  0.50110300  1
  O  O12  1  0.30704800  0.00000000  0.17276700  1
  O  O13  1  0.30704800  0.30704800  0.67276700  1
  O  O14  1  0.00000000  0.69295200  0.67276700  1
  O  O15  1  0.00000000  0.30704800  0.17276700  1
  O  O16  1  0.69295200  0.69295200  0.17276700  1
  O  O17  1  0.69295200  0.00000000  0.67276700  1
  O  O18  1  0.63934700  0.00000000  0.33126100  1
  O  O19  1  0.63934700  0.63934700  0.83126100  1
  O  O20  1  0.00000000  0.36065300  0.83126100  1
  O  O21  1  0.00000000  0.63934700  0.33126100  1
  O  O22  1  0.36065300  0.36065300  0.33126100  1
  O  O23  1  0.36065300  0.00000000  0.83126100  1
  O  O24  1  0.00000000  0.00000000  0.46882100  1
  O  O25  1  0.00000000  0.00000000  0.96882100  1
  O  O26  1  0.33333300  0.66666700  0.03036200  1
  O  O27  1  0.66666700  0.33333300  0.53036200  1
  O  O28  1  0.33333300  0.66666700  0.53036200  1
  O  O29  1  0.66666700  0.33333300  0.03036200  1
