# generated using pymatgen
data_KCeF4
_symmetry_space_group_name_H-M   'P 1'
_cell_length_a   3.79474500
_cell_length_b   6.37701300
_cell_length_c   15.83038500
_cell_angle_alpha   90.00000000
_cell_angle_beta   90.00000000
_cell_angle_gamma   90.00000000
_symmetry_Int_Tables_number   1
_chemical_formula_structural   KCeF4
_chemical_formula_sum   'K4 Ce4 F16'
_cell_volume   383.08167432
_cell_formula_units_Z   4
loop_
 _symmetry_equiv_pos_site_id
 _symmetry_equiv_pos_as_xyz
  1  'x, y, z'
loop_
 _atom_site_type_symbol
 _atom_site_label
 _atom_site_symmetry_multiplicity
 _atom_site_fract_x
 _atom_site_fract_y
 _atom_site_fract_z
 _atom_site_occupancy
  K  K0  1  0.25000000  0.22300900  0.29828500  1
  K  K1  1  0.75000000  0.77699100  0.70171500  1
  K  K2  1  0.25000000  0.72300900  0.20171500  1
  K  K3  1  0.75000000  0.27699100  0.79828500  1
  Ce  Ce4  1  0.75000000  0.24899100  0.06193400  1
  Ce  Ce5  1  0.25000000  0.75100900  0.93806600  1
  Ce  Ce6  1  0.75000000  0.74899100  0.43806600  1
  Ce  Ce7  1  0.25000000  0.25100900  0.56193400  1
  F  F8  1  0.75000000  0.36382100  0.46386800  1
  F  F9  1  0.25000000  0.63617900  0.53613200  1
  F  F10  1  0.75000000  0.86382100  0.03613200  1
  F  F11  1  0.25000000  0.13617900  0.96386800  1
  F  F12  1  0.25000000  0.50466900  0.05914200  1
  F  F13  1  0.75000000  0.49533100  0.94085800  1
  F  F14  1  0.25000000  0.00466900  0.44085800  1
  F  F15  1  0.75000000  0.99533100  0.55914200  1
  F  F16  1  0.25000000  0.10379600  0.13609500  1
  F  F17  1  0.75000000  0.89620400  0.86390500  1
  F  F18  1  0.25000000  0.60379600  0.36390500  1
  F  F19  1  0.75000000  0.39620400  0.63609500  1
  F  F20  1  0.75000000  0.41162400  0.19414800  1
  F  F21  1  0.25000000  0.58837600  0.80585200  1
  F  F22  1  0.75000000  0.91162400  0.30585200  1
  F  F23  1  0.25000000  0.08837600  0.69414800  1
