# generated using pymatgen
data_RbIn(WO4)2
_symmetry_space_group_name_H-M   'P 1'
_cell_length_a   5.97877745
_cell_length_b   5.97877745
_cell_length_c   7.90659300
_cell_angle_alpha   90.00000000
_cell_angle_beta   90.00000000
_cell_angle_gamma   119.99999395
_symmetry_Int_Tables_number   1
_chemical_formula_structural   RbIn(WO4)2
_chemical_formula_sum   'Rb1 In1 W2 O8'
_cell_volume   244.76246477
_cell_formula_units_Z   1
loop_
 _symmetry_equiv_pos_site_id
 _symmetry_equiv_pos_as_xyz
  1  'x, y, z'
loop_
 _atom_site_type_symbol
 _atom_site_label
 _atom_site_symmetry_multiplicity
 _atom_site_fract_x
 _atom_site_fract_y
 _atom_site_fract_z
 _atom_site_occupancy
  Rb  Rb0  1  0.00000000  0.00000000  0.50000000  1
  In  In1  1  0.00000000  0.00000000  0.00000000  1
  W  W2  1  0.33333300  0.66666700  0.23565000  1
  W  W3  1  0.66666700  0.33333300  0.76435000  1
  O  O4  1  0.83460300  0.16539700  0.83458900  1
  O  O5  1  0.83460300  0.66920600  0.83458900  1
  O  O6  1  0.33079400  0.16539700  0.83458900  1
  O  O7  1  0.66920600  0.83460300  0.16541100  1
  O  O8  1  0.33333300  0.66666700  0.46025000  1
  O  O9  1  0.66666700  0.33333300  0.53975000  1
  O  O10  1  0.16539700  0.33079400  0.16541100  1
  O  O11  1  0.16539700  0.83460300  0.16541100  1
