# generated using pymatgen
data_Fe3BO5
_symmetry_space_group_name_H-M   'P 1'
_cell_length_a   3.10429200
_cell_length_b   5.58781900
_cell_length_c   10.79728406
_cell_angle_alpha   86.64803162
_cell_angle_beta   90.00000000
_cell_angle_gamma   90.00000000
_symmetry_Int_Tables_number   1
_chemical_formula_structural   Fe3BO5
_chemical_formula_sum   'Fe6 B2 O10'
_cell_volume   186.97166390
_cell_formula_units_Z   2
loop_
 _symmetry_equiv_pos_site_id
 _symmetry_equiv_pos_as_xyz
  1  'x, y, z'
loop_
 _atom_site_type_symbol
 _atom_site_label
 _atom_site_symmetry_multiplicity
 _atom_site_fract_x
 _atom_site_fract_y
 _atom_site_fract_z
 _atom_site_occupancy
  Fe  Fe0  1  0.50000000  0.71992200  0.22735100  1
  Fe  Fe1  1  0.50000000  0.28007800  0.77264900  1
  Fe  Fe2  1  0.00000000  0.00000000  0.00000000  1
  Fe  Fe3  1  0.00000000  0.50000000  0.00000000  1
  Fe  Fe4  1  0.50000000  0.00000000  0.50000000  1
  Fe  Fe5  1  0.00000000  0.50000000  0.50000000  1
  B  B6  1  0.00000000  0.78549400  0.74234000  1
  B  B7  1  0.00000000  0.21450600  0.25766000  1
  O  O8  1  0.00000000  0.20480500  0.38707200  1
  O  O9  1  0.50000000  0.32146400  0.58767300  1
  O  O10  1  0.00000000  0.79519500  0.61292800  1
  O  O11  1  0.50000000  0.67853600  0.41232700  1
  O  O12  1  0.00000000  0.99649300  0.80344800  1
  O  O13  1  0.00000000  0.00350700  0.19655200  1
  O  O14  1  0.50000000  0.26713500  0.96843300  1
  O  O15  1  0.00000000  0.56370400  0.80795300  1
  O  O16  1  0.00000000  0.43629600  0.19204700  1
  O  O17  1  0.50000000  0.73286500  0.03156700  1
