# generated using pymatgen
data_SrV2CuO7
_symmetry_space_group_name_H-M   'P 1'
_cell_length_a   5.53899400
_cell_length_b   7.51576400
_cell_length_c   14.70548100
_cell_angle_alpha   90.00000000
_cell_angle_beta   90.00000000
_cell_angle_gamma   90.00000000
_symmetry_Int_Tables_number   1
_chemical_formula_structural   SrV2CuO7
_chemical_formula_sum   'Sr4 V8 Cu4 O28'
_cell_volume   612.18581679
_cell_formula_units_Z   4
loop_
 _symmetry_equiv_pos_site_id
 _symmetry_equiv_pos_as_xyz
  1  'x, y, z'
loop_
 _atom_site_type_symbol
 _atom_site_label
 _atom_site_symmetry_multiplicity
 _atom_site_fract_x
 _atom_site_fract_y
 _atom_site_fract_z
 _atom_site_occupancy
  Sr  Sr0  1  0.25000000  0.61623900  0.69895100  1
  Sr  Sr1  1  0.75000000  0.38376100  0.30104900  1
  Sr  Sr2  1  0.75000000  0.11623900  0.80104900  1
  Sr  Sr3  1  0.25000000  0.88376100  0.19895100  1
  V  V4  1  0.25000000  0.35749400  0.88847600  1
  V  V5  1  0.75000000  0.64250600  0.11152400  1
  V  V6  1  0.75000000  0.85749400  0.61152400  1
  V  V7  1  0.25000000  0.14250600  0.38847600  1
  V  V8  1  0.25000000  0.88573800  0.91142300  1
  V  V9  1  0.75000000  0.11426200  0.08857700  1
  V  V10  1  0.75000000  0.38573800  0.58857700  1
  V  V11  1  0.25000000  0.61426200  0.41142300  1
  Cu  Cu12  1  0.25000000  0.11121900  0.63635300  1
  Cu  Cu13  1  0.75000000  0.88878100  0.36364700  1
  Cu  Cu14  1  0.75000000  0.61121900  0.86364700  1
  Cu  Cu15  1  0.25000000  0.38878100  0.13635300  1
  O  O16  1  0.25000000  0.42709900  0.99473800  1
  O  O17  1  0.75000000  0.57290100  0.00526200  1
  O  O18  1  0.75000000  0.92709900  0.50526200  1
  O  O19  1  0.25000000  0.07290100  0.49473800  1
  O  O20  1  0.25000000  0.11724100  0.86995400  1
  O  O21  1  0.75000000  0.88275900  0.13004600  1
  O  O22  1  0.75000000  0.61724100  0.63004600  1
  O  O23  1  0.25000000  0.38275900  0.36995400  1
  O  O24  1  0.00267400  0.56370600  0.17201000  1
  O  O25  1  0.50267400  0.43629400  0.82799000  1
  O  O26  1  0.99732600  0.06370600  0.32799000  1
  O  O27  1  0.49732600  0.93629400  0.67201000  1
  O  O28  1  0.99732600  0.43629400  0.82799000  1
  O  O29  1  0.49732600  0.56370600  0.17201000  1
  O  O30  1  0.00267400  0.93629400  0.67201000  1
  O  O31  1  0.50267400  0.06370600  0.32799000  1
  O  O32  1  0.50230500  0.70444300  0.35809900  1
  O  O33  1  0.00230500  0.29555700  0.64190100  1
  O  O34  1  0.49769500  0.20444300  0.14190100  1
  O  O35  1  0.99769500  0.79555700  0.85809900  1
  O  O36  1  0.49769500  0.29555700  0.64190100  1
  O  O37  1  0.99769500  0.70444300  0.35809900  1
  O  O38  1  0.50230500  0.79555700  0.85809900  1
  O  O39  1  0.00230500  0.20444300  0.14190100  1
  O  O40  1  0.25000000  0.63475000  0.52532500  1
  O  O41  1  0.75000000  0.36525000  0.47467500  1
  O  O42  1  0.75000000  0.13475000  0.97467500  1
  O  O43  1  0.25000000  0.86525000  0.02532500  1
