# generated using pymatgen
data_YCu(WO4)2
_symmetry_space_group_name_H-M   'P 1'
_cell_length_a   5.14979500
_cell_length_b   6.05981849
_cell_length_c   6.18357278
_cell_angle_alpha   108.64815761
_cell_angle_beta   91.84921049
_cell_angle_gamma   113.86265620
_symmetry_Int_Tables_number   1
_chemical_formula_structural   YCu(WO4)2
_chemical_formula_sum   'Y1 Cu1 W2 O8'
_cell_volume   164.27480700
_cell_formula_units_Z   1
loop_
 _symmetry_equiv_pos_site_id
 _symmetry_equiv_pos_as_xyz
  1  'x, y, z'
loop_
 _atom_site_type_symbol
 _atom_site_label
 _atom_site_symmetry_multiplicity
 _atom_site_fract_x
 _atom_site_fract_y
 _atom_site_fract_z
 _atom_site_occupancy
  Y  Y0  1  0.00000000  0.50000000  0.00000000  1
  Cu  Cu1  1  0.50000000  0.50000000  0.50000000  1
  W  W2  1  0.75062600  0.01316800  0.33551400  1
  W  W3  1  0.24937400  0.98683200  0.66448600  1
  O  O4  1  0.48436900  0.76208400  0.08138300  1
  O  O5  1  0.97828900  0.24431100  0.21398500  1
  O  O6  1  0.46259200  0.79669200  0.52551600  1
  O  O7  1  0.02731300  0.19244800  0.66948900  1
  O  O8  1  0.02171100  0.75568900  0.78601500  1
  O  O9  1  0.51563100  0.23791600  0.91861700  1
  O  O10  1  0.53740800  0.20330800  0.47448400  1
  O  O11  1  0.97268700  0.80755200  0.33051100  1
