# generated using pymatgen
data_CaF2
_symmetry_space_group_name_H-M   'P 1'
_cell_length_a   3.64279300
_cell_length_b   6.01346200
_cell_length_c   7.08072800
_cell_angle_alpha   90.00000000
_cell_angle_beta   90.00000000
_cell_angle_gamma   90.00000000
_symmetry_Int_Tables_number   1
_chemical_formula_structural   CaF2
_chemical_formula_sum   'Ca4 F8'
_cell_volume   155.10899216
_cell_formula_units_Z   4
loop_
 _symmetry_equiv_pos_site_id
 _symmetry_equiv_pos_as_xyz
  1  'x, y, z'
loop_
 _atom_site_type_symbol
 _atom_site_label
 _atom_site_symmetry_multiplicity
 _atom_site_fract_x
 _atom_site_fract_y
 _atom_site_fract_z
 _atom_site_occupancy
  Ca  Ca0  1  0.25000000  0.75148000  0.60554400  1
  Ca  Ca1  1  0.75000000  0.24852000  0.39445600  1
  Ca  Ca2  1  0.25000000  0.25148000  0.89445600  1
  Ca  Ca3  1  0.75000000  0.74852000  0.10554400  1
  F  F4  1  0.25000000  0.98465300  0.33940600  1
  F  F5  1  0.75000000  0.01534700  0.66059400  1
  F  F6  1  0.25000000  0.48465300  0.16059400  1
  F  F7  1  0.75000000  0.51534700  0.83940600  1
  F  F8  1  0.75000000  0.14135300  0.07772300  1
  F  F9  1  0.25000000  0.85864700  0.92227700  1
  F  F10  1  0.75000000  0.64135300  0.42227700  1
  F  F11  1  0.25000000  0.35864700  0.57772300  1
