# generated using pymatgen
data_Ni2SnP
_symmetry_space_group_name_H-M   'P 1'
_cell_length_a   3.59022500
_cell_length_b   5.09371700
_cell_length_c   12.94569000
_cell_angle_alpha   90.00000000
_cell_angle_beta   90.00000000
_cell_angle_gamma   90.00000000
_symmetry_Int_Tables_number   1
_chemical_formula_structural   Ni2SnP
_chemical_formula_sum   'Ni8 Sn4 P4'
_cell_volume   236.74547249
_cell_formula_units_Z   4
loop_
 _symmetry_equiv_pos_site_id
 _symmetry_equiv_pos_as_xyz
  1  'x, y, z'
loop_
 _atom_site_type_symbol
 _atom_site_label
 _atom_site_symmetry_multiplicity
 _atom_site_fract_x
 _atom_site_fract_y
 _atom_site_fract_z
 _atom_site_occupancy
  Ni  Ni0  1  0.25000000  0.49919200  0.11167000  1
  Ni  Ni1  1  0.75000000  0.50080800  0.88833000  1
  Ni  Ni2  1  0.75000000  0.99919200  0.38833000  1
  Ni  Ni3  1  0.25000000  0.00080800  0.61167000  1
  Ni  Ni4  1  0.75000000  0.51370700  0.41945800  1
  Ni  Ni5  1  0.25000000  0.48629300  0.58054200  1
  Ni  Ni6  1  0.25000000  0.01370700  0.08054200  1
  Ni  Ni7  1  0.75000000  0.98629300  0.91945800  1
  Sn  Sn8  1  0.25000000  0.28254600  0.29285600  1
  Sn  Sn9  1  0.75000000  0.71745400  0.70714400  1
  Sn  Sn10  1  0.75000000  0.78254600  0.20714400  1
  Sn  Sn11  1  0.25000000  0.21745400  0.79285600  1
  P  P12  1  0.75000000  0.28330700  0.04356600  1
  P  P13  1  0.25000000  0.71669300  0.95643400  1
  P  P14  1  0.25000000  0.78330700  0.45643400  1
  P  P15  1  0.75000000  0.21669300  0.54356600  1
