# generated using pymatgen
data_K2PbO3
_symmetry_space_group_name_H-M   'P 1'
_cell_length_a   6.10369600
_cell_length_b   7.08744500
_cell_length_c   10.77962500
_cell_angle_alpha   90.00000000
_cell_angle_beta   90.00000000
_cell_angle_gamma   90.00000000
_symmetry_Int_Tables_number   1
_chemical_formula_structural   K2PbO3
_chemical_formula_sum   'K8 Pb4 O12'
_cell_volume   466.32237018
_cell_formula_units_Z   4
loop_
 _symmetry_equiv_pos_site_id
 _symmetry_equiv_pos_as_xyz
  1  'x, y, z'
loop_
 _atom_site_type_symbol
 _atom_site_label
 _atom_site_symmetry_multiplicity
 _atom_site_fract_x
 _atom_site_fract_y
 _atom_site_fract_z
 _atom_site_occupancy
  K  K0  1  0.76727100  0.38793900  0.08597800  1
  K  K1  1  0.26727100  0.11206100  0.41402200  1
  K  K2  1  0.73272900  0.88793900  0.91402200  1
  K  K3  1  0.23272900  0.61206100  0.58597800  1
  K  K4  1  0.23272900  0.61206100  0.91402200  1
  K  K5  1  0.73272900  0.88793900  0.58597800  1
  K  K6  1  0.26727100  0.11206100  0.08597800  1
  K  K7  1  0.76727100  0.38793900  0.41402200  1
  Pb  Pb8  1  0.73125300  0.84795400  0.25000000  1
  Pb  Pb9  1  0.23125300  0.65204600  0.25000000  1
  Pb  Pb10  1  0.76874700  0.34795400  0.75000000  1
  Pb  Pb11  1  0.26874700  0.15204600  0.75000000  1
  O  O12  1  0.99454300  0.78206600  0.11614500  1
  O  O13  1  0.49454300  0.71793400  0.38385500  1
  O  O14  1  0.50545700  0.28206600  0.88385500  1
  O  O15  1  0.00545700  0.21793400  0.61614500  1
  O  O16  1  0.00545700  0.21793400  0.88385500  1
  O  O17  1  0.50545700  0.28206600  0.61614500  1
  O  O18  1  0.49454300  0.71793400  0.11614500  1
  O  O19  1  0.99454300  0.78206600  0.38385500  1
  O  O20  1  0.13043600  0.37462900  0.25000000  1
  O  O21  1  0.63043600  0.12537100  0.25000000  1
  O  O22  1  0.36956400  0.87462900  0.75000000  1
  O  O23  1  0.86956400  0.62537100  0.75000000  1
