# generated using pymatgen
data_KNaP2H2O7
_symmetry_space_group_name_H-M   'P 1'
_cell_length_a   8.01695300
_cell_length_b   8.03892227
_cell_length_c   11.48029506
_cell_angle_alpha   106.48749703
_cell_angle_beta   95.30391657
_cell_angle_gamma   90.06559965
_symmetry_Int_Tables_number   1
_chemical_formula_structural   KNaP2H2O7
_chemical_formula_sum   'K4 Na4 P8 H8 O28'
_cell_volume   706.12749959
_cell_formula_units_Z   4
loop_
 _symmetry_equiv_pos_site_id
 _symmetry_equiv_pos_as_xyz
  1  'x, y, z'
loop_
 _atom_site_type_symbol
 _atom_site_label
 _atom_site_symmetry_multiplicity
 _atom_site_fract_x
 _atom_site_fract_y
 _atom_site_fract_z
 _atom_site_occupancy
  K  K0  1  0.22286100  0.64687800  0.43614800  1
  K  K1  1  0.77713900  0.35312200  0.56385200  1
  K  K2  1  0.33940200  0.76490400  0.06332200  1
  K  K3  1  0.66059800  0.23509600  0.93667800  1
  Na  Na4  1  0.66797100  0.85144300  0.42002200  1
  Na  Na5  1  0.33202900  0.14855700  0.57997800  1
  Na  Na6  1  0.12364900  0.21032200  0.07693400  1
  Na  Na7  1  0.87635100  0.78967800  0.92306600  1
  P  P8  1  0.44867200  0.15906200  0.29320900  1
  P  P9  1  0.55132800  0.84093800  0.70679100  1
  P  P10  1  0.78355400  0.06858800  0.21059200  1
  P  P11  1  0.21644600  0.93141200  0.78940800  1
  P  P12  1  0.85235100  0.44699700  0.28600800  1
  P  P13  1  0.14764900  0.55300300  0.71399200  1
  P  P14  1  0.49182300  0.47102600  0.20921600  1
  P  P15  1  0.50817700  0.52897400  0.79078400  1
  H  H16  1  0.19134200  0.00428200  0.34649000  1
  H  H17  1  0.80865800  0.99571800  0.65351000  1
  H  H18  1  0.02355300  0.96836100  0.39025000  1
  H  H19  1  0.97644700  0.03163900  0.60975000  1
  H  H20  1  0.01034700  0.59347700  0.11904800  1
  H  H21  1  0.98965300  0.40652300  0.88095200  1
  H  H22  1  0.95838900  0.78344400  0.15824700  1
  H  H23  1  0.04161100  0.21655600  0.84175300  1
  O  O24  1  0.57901300  0.07828600  0.19115900  1
  O  O25  1  0.42098700  0.92171400  0.80884100  1
  O  O26  1  0.83394900  0.25585100  0.30954900  1
  O  O27  1  0.16605100  0.74414900  0.69045100  1
  O  O28  1  0.69043300  0.44254000  0.18756700  1
  O  O29  1  0.30956700  0.55746000  0.81243300  1
  O  O30  1  0.46688300  0.36786300  0.31110400  1
  O  O31  1  0.53311700  0.63213700  0.68889600  1
  O  O32  1  0.27844200  0.09195000  0.23187600  1
  O  O33  1  0.72155800  0.90805000  0.76812400  1
  O  O34  1  0.50890500  0.13221700  0.41388800  1
  O  O35  1  0.49109500  0.86778300  0.58611200  1
  O  O36  1  0.84522600  0.05793200  0.08947100  1
  O  O37  1  0.15477400  0.94206800  0.91052900  1
  O  O38  1  0.82890100  0.93293900  0.27405900  1
  O  O39  1  0.17109900  0.06706100  0.72594100  1
  O  O40  1  0.83377100  0.57771000  0.40587600  1
  O  O41  1  0.16622900  0.42229000  0.59412400  1
  O  O42  1  0.00576900  0.45036100  0.22088900  1
  O  O43  1  0.99423100  0.54963900  0.77911100  1
  O  O44  1  0.46466300  0.65851400  0.27147000  1
  O  O45  1  0.53533700  0.34148600  0.72853000  1
  O  O46  1  0.39583100  0.38106800  0.08957900  1
  O  O47  1  0.60416900  0.61893200  0.91042100  1
  O  O48  1  0.14474300  0.97141000  0.41392800  1
  O  O49  1  0.85525700  0.02859000  0.58607200  1
  O  O50  1  0.01219000  0.70014600  0.09292100  1
  O  O51  1  0.98781000  0.29985400  0.90707900  1
