# generated using pymatgen
data_Ba2Y2CuPtO8
_symmetry_space_group_name_H-M   'P 1'
_cell_length_a   5.74999000
_cell_length_b   10.44863300
_cell_length_c   13.38104300
_cell_angle_alpha   90.00000000
_cell_angle_beta   90.00000000
_cell_angle_gamma   90.00000000
_symmetry_Int_Tables_number   1
_chemical_formula_structural   Ba2Y2CuPtO8
_chemical_formula_sum   'Ba8 Y8 Cu4 Pt4 O32'
_cell_volume   803.92684478
_cell_formula_units_Z   4
loop_
 _symmetry_equiv_pos_site_id
 _symmetry_equiv_pos_as_xyz
  1  'x, y, z'
loop_
 _atom_site_type_symbol
 _atom_site_label
 _atom_site_symmetry_multiplicity
 _atom_site_fract_x
 _atom_site_fract_y
 _atom_site_fract_z
 _atom_site_occupancy
  Ba  Ba0  1  0.75000000  0.18629700  0.29305500  1
  Ba  Ba1  1  0.75000000  0.59132800  0.57718500  1
  Ba  Ba2  1  0.25000000  0.40867200  0.42281500  1
  Ba  Ba3  1  0.75000000  0.31370300  0.79305500  1
  Ba  Ba4  1  0.25000000  0.68629700  0.20694500  1
  Ba  Ba5  1  0.75000000  0.90867200  0.07718500  1
  Ba  Ba6  1  0.25000000  0.81370300  0.70694500  1
  Ba  Ba7  1  0.25000000  0.09132800  0.92281500  1
  Y  Y8  1  0.25000000  0.31183600  0.14218400  1
  Y  Y9  1  0.25000000  0.01406600  0.41675900  1
  Y  Y10  1  0.75000000  0.81183600  0.35781600  1
  Y  Y11  1  0.75000000  0.68816400  0.85781600  1
  Y  Y12  1  0.25000000  0.18816400  0.64218400  1
  Y  Y13  1  0.25000000  0.48593400  0.91675900  1
  Y  Y14  1  0.75000000  0.51406600  0.08324100  1
  Y  Y15  1  0.75000000  0.98593400  0.58324100  1
  Cu  Cu16  1  0.75000000  0.23204100  0.03896900  1
  Cu  Cu17  1  0.75000000  0.26795900  0.53896900  1
  Cu  Cu18  1  0.25000000  0.76795900  0.96103100  1
  Cu  Cu19  1  0.25000000  0.73204100  0.46103100  1
  Pt  Pt20  1  0.75000000  0.53228600  0.30653800  1
  Pt  Pt21  1  0.75000000  0.96771400  0.80653800  1
  Pt  Pt22  1  0.25000000  0.03228600  0.19346200  1
  Pt  Pt23  1  0.25000000  0.46771400  0.69346200  1
  O  O24  1  0.00713000  0.63695700  0.99284500  1
  O  O25  1  0.49349000  0.36194600  0.61415200  1
  O  O26  1  0.75000000  0.81417600  0.70406300  1
  O  O27  1  0.99287000  0.13695700  0.50715500  1
  O  O28  1  0.50651000  0.86194600  0.88584800  1
  O  O29  1  0.75000000  0.39118500  0.41139400  1
  O  O30  1  0.00651000  0.13805400  0.11415200  1
  O  O31  1  0.75000000  0.68582400  0.20406300  1
  O  O32  1  0.50923700  0.44343400  0.21716700  1
  O  O33  1  0.49076300  0.94343400  0.28283300  1
  O  O34  1  0.99287000  0.36304300  0.00715500  1
  O  O35  1  0.49349000  0.13805400  0.11415200  1
  O  O36  1  0.25000000  0.31417600  0.79593700  1
  O  O37  1  0.00923700  0.55656600  0.78283300  1
  O  O38  1  0.50713000  0.36304300  0.00715500  1
  O  O39  1  0.99076300  0.44343400  0.21716700  1
  O  O40  1  0.25000000  0.60881500  0.58860600  1
  O  O41  1  0.50923700  0.05656600  0.71716700  1
  O  O42  1  0.00651000  0.36194600  0.61415200  1
  O  O43  1  0.49287000  0.86304300  0.49284500  1
  O  O44  1  0.00923700  0.94343400  0.28283300  1
  O  O45  1  0.99076300  0.05656600  0.71716700  1
  O  O46  1  0.99349000  0.63805400  0.38584800  1
  O  O47  1  0.99349000  0.86194600  0.88584800  1
  O  O48  1  0.50713000  0.13695700  0.50715500  1
  O  O49  1  0.50651000  0.63805400  0.38584800  1
  O  O50  1  0.49076300  0.55656600  0.78283300  1
  O  O51  1  0.00713000  0.86304300  0.49284500  1
  O  O52  1  0.75000000  0.10881500  0.91139400  1
  O  O53  1  0.49287000  0.63695700  0.99284500  1
  O  O54  1  0.25000000  0.18582400  0.29593700  1
  O  O55  1  0.25000000  0.89118500  0.08860600  1
