# generated using pymatgen
data_Rb3ZnBr5
_symmetry_space_group_name_H-M   'P 1'
_cell_length_a   9.27941300
_cell_length_b   10.67023800
_cell_length_c   13.77703200
_cell_angle_alpha   90.00000000
_cell_angle_beta   90.00000000
_cell_angle_gamma   90.00000000
_symmetry_Int_Tables_number   1
_chemical_formula_structural   Rb3ZnBr5
_chemical_formula_sum   'Rb12 Zn4 Br20'
_cell_volume   1364.11278080
_cell_formula_units_Z   4
loop_
 _symmetry_equiv_pos_site_id
 _symmetry_equiv_pos_as_xyz
  1  'x, y, z'
loop_
 _atom_site_type_symbol
 _atom_site_label
 _atom_site_symmetry_multiplicity
 _atom_site_fract_x
 _atom_site_fract_y
 _atom_site_fract_z
 _atom_site_occupancy
  Rb  Rb0  1  0.91138900  0.02109400  0.67152200  1
  Rb  Rb1  1  0.58861100  0.97890600  0.17152200  1
  Rb  Rb2  1  0.58861100  0.52109400  0.17152200  1
  Rb  Rb3  1  0.08861100  0.52109400  0.32847800  1
  Rb  Rb4  1  0.08861100  0.97890600  0.32847800  1
  Rb  Rb5  1  0.41138900  0.02109400  0.82847800  1
  Rb  Rb6  1  0.58821400  0.75000000  0.45402500  1
  Rb  Rb7  1  0.91178600  0.25000000  0.95402500  1
  Rb  Rb8  1  0.08821400  0.75000000  0.04597500  1
  Rb  Rb9  1  0.41178600  0.25000000  0.54597500  1
  Rb  Rb10  1  0.41138900  0.47890600  0.82847800  1
  Rb  Rb11  1  0.91138900  0.47890600  0.67152200  1
  Zn  Zn12  1  0.69022400  0.75000000  0.89118900  1
  Zn  Zn13  1  0.30977600  0.25000000  0.10881100  1
  Zn  Zn14  1  0.19022400  0.75000000  0.60881100  1
  Zn  Zn15  1  0.80977600  0.25000000  0.39118900  1
  Br  Br16  1  0.66073500  0.25000000  0.73416100  1
  Br  Br17  1  0.31415300  0.55825400  0.56440200  1
  Br  Br18  1  0.86471700  0.25000000  0.21903900  1
  Br  Br19  1  0.83926500  0.75000000  0.23416100  1
  Br  Br20  1  0.63528300  0.75000000  0.71903900  1
  Br  Br21  1  0.68584700  0.44174600  0.43559800  1
  Br  Br22  1  0.81415300  0.55825400  0.93559800  1
  Br  Br23  1  0.53418700  0.25000000  0.01425900  1
  Br  Br24  1  0.96581300  0.75000000  0.51425900  1
  Br  Br25  1  0.16073500  0.25000000  0.76583900  1
  Br  Br26  1  0.81415300  0.94174600  0.93559800  1
  Br  Br27  1  0.31415300  0.94174600  0.56440200  1
  Br  Br28  1  0.33926500  0.75000000  0.26583900  1
  Br  Br29  1  0.18584700  0.05825400  0.06440200  1
  Br  Br30  1  0.68584700  0.05825400  0.43559800  1
  Br  Br31  1  0.13528300  0.75000000  0.78096100  1
  Br  Br32  1  0.36471700  0.25000000  0.28096100  1
  Br  Br33  1  0.03418700  0.25000000  0.48574100  1
  Br  Br34  1  0.18584700  0.44174600  0.06440200  1
  Br  Br35  1  0.46581300  0.75000000  0.98574100  1
