# generated using pymatgen
data_TiIn2O5
_symmetry_space_group_name_H-M   'P 1'
_cell_length_a   3.53644900
_cell_length_b   7.38241300
_cell_length_c   15.16067000
_cell_angle_alpha   90.00000000
_cell_angle_beta   90.00000000
_cell_angle_gamma   90.00000000
_symmetry_Int_Tables_number   1
_chemical_formula_structural   TiIn2O5
_chemical_formula_sum   'Ti4 In8 O20'
_cell_volume   395.80760245
_cell_formula_units_Z   4
loop_
 _symmetry_equiv_pos_site_id
 _symmetry_equiv_pos_as_xyz
  1  'x, y, z'
loop_
 _atom_site_type_symbol
 _atom_site_label
 _atom_site_symmetry_multiplicity
 _atom_site_fract_x
 _atom_site_fract_y
 _atom_site_fract_z
 _atom_site_occupancy
  Ti  Ti0  1  0.75000000  0.39221900  0.07803000  1
  Ti  Ti1  1  0.25000000  0.60778100  0.92197000  1
  Ti  Ti2  1  0.75000000  0.89221900  0.42197000  1
  Ti  Ti3  1  0.25000000  0.10778100  0.57803000  1
  In  In4  1  0.75000000  0.40137100  0.41650100  1
  In  In5  1  0.25000000  0.59862900  0.58349900  1
  In  In6  1  0.75000000  0.90137100  0.08349900  1
  In  In7  1  0.25000000  0.09862900  0.91650100  1
  In  In8  1  0.25000000  0.17534700  0.26075600  1
  In  In9  1  0.75000000  0.82465300  0.73924400  1
  In  In10  1  0.25000000  0.67534700  0.23924400  1
  In  In11  1  0.75000000  0.32465300  0.76075600  1
  O  O12  1  0.75000000  0.26340200  0.18049100  1
  O  O13  1  0.25000000  0.73659800  0.81950900  1
  O  O14  1  0.75000000  0.76340200  0.31950900  1
  O  O15  1  0.25000000  0.23659800  0.68049100  1
  O  O16  1  0.75000000  0.15455400  0.00487000  1
  O  O17  1  0.25000000  0.84544600  0.99513000  1
  O  O18  1  0.75000000  0.65455400  0.49513000  1
  O  O19  1  0.25000000  0.34544600  0.50487000  1
  O  O20  1  0.75000000  0.13097000  0.35137700  1
  O  O21  1  0.25000000  0.86903000  0.64862300  1
  O  O22  1  0.75000000  0.63097000  0.14862300  1
  O  O23  1  0.25000000  0.36903000  0.85137700  1
  O  O24  1  0.25000000  0.44235400  0.32449800  1
  O  O25  1  0.75000000  0.55764600  0.67550200  1
  O  O26  1  0.25000000  0.94235400  0.17550200  1
  O  O27  1  0.75000000  0.05764600  0.82449800  1
  O  O28  1  0.25000000  0.42895900  0.04652200  1
  O  O29  1  0.75000000  0.57104100  0.95347800  1
  O  O30  1  0.25000000  0.92895900  0.45347800  1
  O  O31  1  0.75000000  0.07104100  0.54652200  1
