# generated using pymatgen
data_Na2H16O9
_symmetry_space_group_name_H-M   'P 1'
_cell_length_a   12.43770900
_cell_length_b   6.52652800
_cell_length_c   11.80044043
_cell_angle_alpha   76.32598815
_cell_angle_beta   90.00000000
_cell_angle_gamma   90.00000000
_symmetry_Int_Tables_number   1
_chemical_formula_structural   Na2H16O9
_chemical_formula_sum   'Na8 H64 O36'
_cell_volume   930.75108205
_cell_formula_units_Z   4
loop_
 _symmetry_equiv_pos_site_id
 _symmetry_equiv_pos_as_xyz
  1  'x, y, z'
loop_
 _atom_site_type_symbol
 _atom_site_label
 _atom_site_symmetry_multiplicity
 _atom_site_fract_x
 _atom_site_fract_y
 _atom_site_fract_z
 _atom_site_occupancy
  Na  Na0  1  0.68335100  0.58058200  0.89959200  1
  Na  Na1  1  0.18335100  0.41941800  0.60040800  1
  Na  Na2  1  0.31664900  0.41941800  0.10040800  1
  Na  Na3  1  0.81664900  0.58058200  0.39959200  1
  Na  Na4  1  0.70866800  0.40716600  0.66707500  1
  Na  Na5  1  0.20866800  0.59283400  0.83292500  1
  Na  Na6  1  0.29133200  0.59283400  0.33292500  1
  Na  Na7  1  0.79133200  0.40716600  0.16707500  1
  H  H8  1  0.00658500  0.13347100  0.90330600  1
  H  H9  1  0.50658500  0.86652900  0.59669400  1
  H  H10  1  0.99341500  0.86652900  0.09669400  1
  H  H11  1  0.49341500  0.13347100  0.40330600  1
  H  H12  1  0.41414700  0.01483300  0.76658600  1
  H  H13  1  0.91414700  0.98516700  0.73341400  1
  H  H14  1  0.58585300  0.98516700  0.23341400  1
  H  H15  1  0.08585300  0.01483300  0.26658600  1
  H  H16  1  0.56382600  0.42471300  0.12599800  1
  H  H17  1  0.06382600  0.57528700  0.37400200  1
  H  H18  1  0.43617400  0.57528700  0.87400200  1
  H  H19  1  0.93617400  0.42471300  0.62599800  1
  H  H20  1  0.59974000  0.21938700  0.08969000  1
  H  H21  1  0.09974000  0.78061300  0.41031000  1
  H  H22  1  0.40026000  0.78061300  0.91031000  1
  H  H23  1  0.90026000  0.21938700  0.58969000  1
  H  H24  1  0.49948900  0.57101200  0.70523900  1
  H  H25  1  0.99948900  0.42898800  0.79476100  1
  H  H26  1  0.50051100  0.42898800  0.29476100  1
  H  H27  1  0.00051100  0.57101200  0.20523900  1
  H  H28  1  0.49343000  0.33643100  0.78971400  1
  H  H29  1  0.99343000  0.66356900  0.71028600  1
  H  H30  1  0.50657000  0.66356900  0.21028600  1
  H  H31  1  0.00657000  0.33643100  0.28971400  1
  H  H32  1  0.83397600  0.22416300  0.88499600  1
  H  H33  1  0.33397600  0.77583700  0.61500400  1
  H  H34  1  0.16602400  0.77583700  0.11500400  1
  H  H35  1  0.66602400  0.22416300  0.38499600  1
  H  H36  1  0.71735600  0.11286300  0.89525400  1
  H  H37  1  0.21735600  0.88713700  0.60474600  1
  H  H38  1  0.28264400  0.88713700  0.10474600  1
  H  H39  1  0.78264400  0.11286300  0.39525400  1
  H  H40  1  0.55480100  0.96586400  0.89818200  1
  H  H41  1  0.05480100  0.03413600  0.60181800  1
  H  H42  1  0.44519900  0.03413600  0.10181800  1
  H  H43  1  0.94519900  0.96586400  0.39818200  1
  H  H44  1  0.60148500  0.90357900  0.02702500  1
  H  H45  1  0.10148500  0.09642100  0.47297500  1
  H  H46  1  0.39851500  0.09642100  0.97297500  1
  H  H47  1  0.89851500  0.90357900  0.52702500  1
  H  H48  1  0.90135100  0.47990900  0.94867400  1
  H  H49  1  0.40135100  0.52009100  0.55132600  1
  H  H50  1  0.09864900  0.52009100  0.05132600  1
  H  H51  1  0.59864900  0.47990900  0.44867400  1
  H  H52  1  0.92269100  0.66354700  0.01016600  1
  H  H53  1  0.42269100  0.33645300  0.48983400  1
  H  H54  1  0.07730900  0.33645300  0.98983400  1
  H  H55  1  0.57730900  0.66354700  0.51016600  1
  H  H56  1  0.81662900  0.79643100  0.69321700  1
  H  H57  1  0.31662900  0.20356900  0.80678300  1
  H  H58  1  0.18337100  0.20356900  0.30678300  1
  H  H59  1  0.68337100  0.79643100  0.19321700  1
  H  H60  1  0.69569900  0.87066900  0.67484700  1
  H  H61  1  0.19569900  0.12933100  0.82515300  1
  H  H62  1  0.30430100  0.12933100  0.32515300  1
  H  H63  1  0.80430100  0.87066900  0.17484700  1
  H  H64  1  0.55197800  0.10329500  0.69980300  1
  H  H65  1  0.05197800  0.89670500  0.80019700  1
  H  H66  1  0.44802200  0.89670500  0.30019700  1
  H  H67  1  0.94802200  0.10329500  0.19980300  1
  H  H68  1  0.57411000  0.15559300  0.55902500  1
  H  H69  1  0.07411000  0.84440700  0.94097500  1
  H  H70  1  0.42589000  0.84440700  0.44097500  1
  H  H71  1  0.92589000  0.15559300  0.05902500  1
  O  O72  1  0.96823600  0.24817800  0.92631800  1
  O  O73  1  0.46823600  0.75182200  0.57368200  1
  O  O74  1  0.03176400  0.75182200  0.07368200  1
  O  O75  1  0.53176400  0.24817800  0.42631800  1
  O  O76  1  0.44861700  0.08261200  0.82237000  1
  O  O77  1  0.94861700  0.91738800  0.67763000  1
  O  O78  1  0.55138300  0.91738800  0.17763000  1
  O  O79  1  0.05138300  0.08261200  0.32237000  1
  O  O80  1  0.62011800  0.36769300  0.08127600  1
  O  O81  1  0.12011800  0.63230700  0.41872400  1
  O  O82  1  0.37988200  0.63230700  0.91872400  1
  O  O83  1  0.87988200  0.36769300  0.58127600  1
  O  O84  1  0.52445000  0.48173300  0.78208300  1
  O  O85  1  0.02445000  0.51826700  0.71791700  1
  O  O86  1  0.47555000  0.51826700  0.21791700  1
  O  O87  1  0.97555000  0.48173300  0.28208300  1
  O  O88  1  0.75758700  0.24318800  0.85856100  1
  O  O89  1  0.25758700  0.75681200  0.64143900  1
  O  O90  1  0.24241300  0.75681200  0.14143900  1
  O  O91  1  0.74241300  0.24318800  0.35856100  1
  O  O92  1  0.62005500  0.90521000  0.94526600  1
  O  O93  1  0.12005500  0.09479000  0.55473400  1
  O  O94  1  0.37994500  0.09479000  0.05473400  1
  O  O95  1  0.87994500  0.90521000  0.44526600  1
  O  O96  1  0.86330100  0.58776600  0.97906500  1
  O  O97  1  0.36330100  0.41223400  0.52093500  1
  O  O98  1  0.13669900  0.41223400  0.02093500  1
  O  O99  1  0.63669900  0.58776600  0.47906500  1
  O  O100  1  0.74125500  0.74493500  0.70478300  1
  O  O101  1  0.24125500  0.25506500  0.79521700  1
  O  O102  1  0.25874500  0.25506500  0.29521700  1
  O  O103  1  0.75874500  0.74493500  0.20478300  1
  O  O104  1  0.60639400  0.09504600  0.63959200  1
  O  O105  1  0.10639400  0.90495400  0.86040800  1
  O  O106  1  0.39360600  0.90495400  0.36040800  1
  O  O107  1  0.89360600  0.09504600  0.13959200  1
