# generated using pymatgen
data_Ba(Cu3As)2
_symmetry_space_group_name_H-M   'P 1'
_cell_length_a   4.20954000
_cell_length_b   4.20954000
_cell_length_c   8.71867100
_cell_angle_alpha   90.00000000
_cell_angle_beta   90.00000000
_cell_angle_gamma   90.00000000
_symmetry_Int_Tables_number   1
_chemical_formula_structural   Ba(Cu3As)2
_chemical_formula_sum   'Ba1 Cu6 As2'
_cell_volume   154.49682936
_cell_formula_units_Z   1
loop_
 _symmetry_equiv_pos_site_id
 _symmetry_equiv_pos_as_xyz
  1  'x, y, z'
loop_
 _atom_site_type_symbol
 _atom_site_label
 _atom_site_symmetry_multiplicity
 _atom_site_fract_x
 _atom_site_fract_y
 _atom_site_fract_z
 _atom_site_occupancy
  Ba  Ba0  1  0.00000000  0.00000000  0.00000000  1
  Cu  Cu1  1  0.00000000  0.50000000  0.33648200  1
  Cu  Cu2  1  0.50000000  0.00000000  0.33648200  1
  Cu  Cu3  1  0.00000000  0.50000000  0.66351800  1
  Cu  Cu4  1  0.50000000  0.00000000  0.66351800  1
  Cu  Cu5  1  0.50000000  0.50000000  0.50000000  1
  Cu  Cu6  1  0.00000000  0.00000000  0.50000000  1
  As  As7  1  0.50000000  0.50000000  0.19558600  1
  As  As8  1  0.50000000  0.50000000  0.80441400  1
