# generated using pymatgen
data_CaAl2Si2(H2O5)2
_symmetry_space_group_name_H-M   'P 1'
_cell_length_a   5.93373900
_cell_length_b   8.85402200
_cell_length_c   13.22238000
_cell_angle_alpha   90.00000000
_cell_angle_beta   90.00000000
_cell_angle_gamma   90.00000000
_symmetry_Int_Tables_number   1
_chemical_formula_structural   CaAl2Si2(H2O5)2
_chemical_formula_sum   'Ca4 Al8 Si8 H16 O40'
_cell_volume   694.67020281
_cell_formula_units_Z   4
loop_
 _symmetry_equiv_pos_site_id
 _symmetry_equiv_pos_as_xyz
  1  'x, y, z'
loop_
 _atom_site_type_symbol
 _atom_site_label
 _atom_site_symmetry_multiplicity
 _atom_site_fract_x
 _atom_site_fract_y
 _atom_site_fract_z
 _atom_site_occupancy
  Ca  Ca0  1  0.75000000  0.08244900  0.25150500  1
  Ca  Ca1  1  0.25000000  0.91755100  0.74849500  1
  Ca  Ca2  1  0.25000000  0.58244900  0.24849500  1
  Ca  Ca3  1  0.75000000  0.41755100  0.75150500  1
  Al  Al4  1  0.00000000  0.00000000  0.00000000  1
  Al  Al5  1  0.50000000  0.00000000  0.00000000  1
  Al  Al6  1  0.00000000  0.50000000  0.50000000  1
  Al  Al7  1  0.50000000  0.50000000  0.50000000  1
  Al  Al8  1  0.00000000  0.00000000  0.50000000  1
  Al  Al9  1  0.50000000  0.00000000  0.50000000  1
  Al  Al10  1  0.00000000  0.50000000  0.00000000  1
  Al  Al11  1  0.50000000  0.50000000  0.00000000  1
  Si  Si12  1  0.75000000  0.73011200  0.13102900  1
  Si  Si13  1  0.25000000  0.26988800  0.86897100  1
  Si  Si14  1  0.25000000  0.23011200  0.36897100  1
  Si  Si15  1  0.75000000  0.76988800  0.63102900  1
  Si  Si16  1  0.75000000  0.72730000  0.36503400  1
  Si  Si17  1  0.25000000  0.27270000  0.63496600  1
  Si  Si18  1  0.25000000  0.22730000  0.13496600  1
  Si  Si19  1  0.75000000  0.77270000  0.86503400  1
  H  H20  1  0.75000000  0.38409800  0.17283500  1
  H  H21  1  0.25000000  0.61590200  0.82716500  1
  H  H22  1  0.25000000  0.88409800  0.32716500  1
  H  H23  1  0.75000000  0.11590200  0.67283500  1
  H  H24  1  0.75000000  0.44681400  0.28776700  1
  H  H25  1  0.25000000  0.55318600  0.71223300  1
  H  H26  1  0.25000000  0.94681400  0.21223300  1
  H  H27  1  0.75000000  0.05318600  0.78776700  1
  H  H28  1  0.75000000  0.28170100  0.03132900  1
  H  H29  1  0.25000000  0.71829900  0.96867100  1
  H  H30  1  0.25000000  0.78170100  0.46867100  1
  H  H31  1  0.75000000  0.21829900  0.53132900  1
  H  H32  1  0.75000000  0.31290300  0.40388700  1
  H  H33  1  0.25000000  0.68709700  0.59611300  1
  H  H34  1  0.25000000  0.81290300  0.09611300  1
  H  H35  1  0.75000000  0.18709700  0.90388700  1
  O  O36  1  0.75000000  0.79950000  0.24826300  1
  O  O37  1  0.25000000  0.20050000  0.75173700  1
  O  O38  1  0.25000000  0.29950000  0.25173700  1
  O  O39  1  0.75000000  0.70050000  0.74826300  1
  O  O40  1  0.02743100  0.12000900  0.12136800  1
  O  O41  1  0.52743100  0.87999100  0.87863200  1
  O  O42  1  0.97256900  0.62000900  0.37863200  1
  O  O43  1  0.47256900  0.37999100  0.62136800  1
  O  O44  1  0.97256900  0.87999100  0.87863200  1
  O  O45  1  0.47256900  0.12000900  0.12136800  1
  O  O46  1  0.02743100  0.37999100  0.62136800  1
  O  O47  1  0.52743100  0.62000900  0.37863200  1
  O  O48  1  0.02136900  0.12988700  0.38489100  1
  O  O49  1  0.52136900  0.87011300  0.61510900  1
  O  O50  1  0.97863100  0.62988700  0.11510900  1
  O  O51  1  0.47863100  0.37011300  0.88489100  1
  O  O52  1  0.97863100  0.87011300  0.61510900  1
  O  O53  1  0.47863100  0.12988700  0.38489100  1
  O  O54  1  0.02136900  0.37011300  0.88489100  1
  O  O55  1  0.52136900  0.62988700  0.11510900  1
  O  O56  1  0.75000000  0.88720400  0.06224600  1
  O  O57  1  0.25000000  0.11279600  0.93775400  1
  O  O58  1  0.25000000  0.38720400  0.43775400  1
  O  O59  1  0.75000000  0.61279600  0.56224600  1
  O  O60  1  0.75000000  0.88472900  0.43368000  1
  O  O61  1  0.25000000  0.11527100  0.56632000  1
  O  O62  1  0.25000000  0.38472900  0.06632000  1
  O  O63  1  0.75000000  0.61527100  0.93368000  1
  O  O64  1  0.75000000  0.39018400  0.05176300  1
  O  O65  1  0.25000000  0.60981600  0.94823700  1
  O  O66  1  0.25000000  0.89018400  0.44823700  1
  O  O67  1  0.75000000  0.10981600  0.55176300  1
  O  O68  1  0.75000000  0.37953800  0.46242500  1
  O  O69  1  0.25000000  0.62046200  0.53757500  1
  O  O70  1  0.25000000  0.87953800  0.03757500  1
  O  O71  1  0.75000000  0.12046200  0.96242500  1
  O  O72  1  0.75000000  0.35506400  0.24688300  1
  O  O73  1  0.25000000  0.64493600  0.75311700  1
  O  O74  1  0.25000000  0.85506400  0.25311700  1
  O  O75  1  0.75000000  0.14493600  0.74688300  1
