# generated using pymatgen
data_Na2ZnP4(H4O5)4
_symmetry_space_group_name_H-M   'P 1'
_cell_length_a   10.98040600
_cell_length_b   7.39556500
_cell_length_c   11.89617461
_cell_angle_alpha   64.60612727
_cell_angle_beta   90.00000000
_cell_angle_gamma   90.00000000
_symmetry_Int_Tables_number   1
_chemical_formula_structural   Na2ZnP4(H4O5)4
_chemical_formula_sum   'Na4 Zn2 P8 H32 O40'
_cell_volume   872.70630841
_cell_formula_units_Z   2
loop_
 _symmetry_equiv_pos_site_id
 _symmetry_equiv_pos_as_xyz
  1  'x, y, z'
loop_
 _atom_site_type_symbol
 _atom_site_label
 _atom_site_symmetry_multiplicity
 _atom_site_fract_x
 _atom_site_fract_y
 _atom_site_fract_z
 _atom_site_occupancy
  Na  Na0  1  0.17196300  0.72098000  0.54645100  1
  Na  Na1  1  0.67196300  0.27902000  0.95354900  1
  Na  Na2  1  0.82803700  0.27902000  0.45354900  1
  Na  Na3  1  0.32803700  0.72098000  0.04645100  1
  Zn  Zn4  1  0.50000000  0.00000000  0.50000000  1
  Zn  Zn5  1  0.00000000  0.00000000  0.00000000  1
  P  P6  1  0.24120100  0.16604500  0.58451000  1
  P  P7  1  0.74120100  0.83395500  0.91549000  1
  P  P8  1  0.75879900  0.83395500  0.41549000  1
  P  P9  1  0.25879900  0.16604500  0.08451000  1
  P  P10  1  0.45856400  0.54724900  0.72386600  1
  P  P11  1  0.95856400  0.45275100  0.77613400  1
  P  P12  1  0.54143600  0.45275100  0.27613400  1
  P  P13  1  0.04143600  0.54724900  0.22386600  1
  H  H14  1  0.01190700  0.03376700  0.63227100  1
  H  H15  1  0.51190700  0.96623300  0.86772900  1
  H  H16  1  0.98809300  0.96623300  0.36772900  1
  H  H17  1  0.48809300  0.03376700  0.13227100  1
  H  H18  1  0.11069800  0.38938600  0.45683400  1
  H  H19  1  0.61069800  0.61061400  0.04316600  1
  H  H20  1  0.88930200  0.61061400  0.54316600  1
  H  H21  1  0.38930200  0.38938600  0.95683400  1
  H  H22  1  0.58710300  0.60248500  0.57409100  1
  H  H23  1  0.08710300  0.39751500  0.92590900  1
  H  H24  1  0.41289700  0.39751500  0.42590900  1
  H  H25  1  0.91289700  0.60248500  0.07409100  1
  H  H26  1  0.29989800  0.37177200  0.71336000  1
  H  H27  1  0.79989800  0.62822800  0.78664000  1
  H  H28  1  0.70010200  0.62822800  0.28664000  1
  H  H29  1  0.20010200  0.37177200  0.21336000  1
  H  H30  1  0.33550800  0.96941200  0.34053500  1
  H  H31  1  0.83550800  0.03058800  0.15946500  1
  H  H32  1  0.66449200  0.03058800  0.65946500  1
  H  H33  1  0.16449200  0.96941200  0.84053500  1
  H  H34  1  0.40617800  0.76374200  0.38909000  1
  H  H35  1  0.90617800  0.23625800  0.11091000  1
  H  H36  1  0.59382200  0.23625800  0.61091000  1
  H  H37  1  0.09382200  0.76374200  0.88909000  1
  H  H38  1  0.15451900  0.05812500  0.27113400  1
  H  H39  1  0.65451900  0.94187500  0.22886600  1
  H  H40  1  0.84548100  0.94187500  0.72886600  1
  H  H41  1  0.34548100  0.05812500  0.77113400  1
  H  H42  1  0.04409400  0.85145700  0.29097800  1
  H  H43  1  0.54409400  0.14854300  0.20902200  1
  H  H44  1  0.95590600  0.14854300  0.70902200  1
  H  H45  1  0.45590600  0.85145700  0.79097800  1
  O  O46  1  0.15818800  0.99771000  0.59329100  1
  O  O47  1  0.65818800  0.00229000  0.90670900  1
  O  O48  1  0.84181200  0.00229000  0.40670900  1
  O  O49  1  0.34181200  0.99771000  0.09329100  1
  O  O50  1  0.26867700  0.14911100  0.72250500  1
  O  O51  1  0.76867700  0.85088900  0.77749500  1
  O  O52  1  0.73132300  0.85088900  0.27749500  1
  O  O53  1  0.23132300  0.14911100  0.22250500  1
  O  O54  1  0.17536800  0.37656800  0.52389800  1
  O  O55  1  0.67536800  0.62343200  0.97610200  1
  O  O56  1  0.82463200  0.62343200  0.47610200  1
  O  O57  1  0.32463200  0.37656800  0.02389800  1
  O  O58  1  0.36386700  0.18231000  0.51887500  1
  O  O59  1  0.86386700  0.81769000  0.98112500  1
  O  O60  1  0.63613300  0.81769000  0.48112500  1
  O  O61  1  0.13613300  0.18231000  0.01887500  1
  O  O62  1  0.54448300  0.48013400  0.64010300  1
  O  O63  1  0.04448300  0.51986600  0.85989700  1
  O  O64  1  0.45551700  0.51986600  0.35989700  1
  O  O65  1  0.95551700  0.48013400  0.14010300  1
  O  O66  1  0.48425100  0.41533800  0.85966700  1
  O  O67  1  0.98425100  0.58466200  0.64033300  1
  O  O68  1  0.51574900  0.58466200  0.14033300  1
  O  O69  1  0.01574900  0.41533800  0.35966700  1
  O  O70  1  0.32120900  0.51518100  0.69231400  1
  O  O71  1  0.82120900  0.48481900  0.80768600  1
  O  O72  1  0.67879100  0.48481900  0.30768600  1
  O  O73  1  0.17879100  0.51518100  0.19231400  1
  O  O74  1  0.47217100  0.77310000  0.68129600  1
  O  O75  1  0.97217100  0.22690000  0.81870400  1
  O  O76  1  0.52782900  0.22690000  0.31870400  1
  O  O77  1  0.02782900  0.77310000  0.18129600  1
  O  O78  1  0.37003900  0.86054100  0.41615500  1
  O  O79  1  0.87003900  0.13945900  0.08384500  1
  O  O80  1  0.62996100  0.13945900  0.58384500  1
  O  O81  1  0.12996100  0.86054100  0.91615500  1
  O  O82  1  0.06665300  0.91935100  0.34556400  1
  O  O83  1  0.56665300  0.08064900  0.15443600  1
  O  O84  1  0.93334700  0.08064900  0.65443600  1
  O  O85  1  0.43334700  0.91935100  0.84556400  1
