# generated using pymatgen
data_Zr3V3C
_symmetry_space_group_name_H-M   'P 1'
_cell_length_a   8.66387392
_cell_length_b   8.66387392
_cell_length_c   8.66387392
_cell_angle_alpha   60.00000000
_cell_angle_beta   60.00000000
_cell_angle_gamma   60.00000000
_symmetry_Int_Tables_number   1
_chemical_formula_structural   Zr3V3C
_chemical_formula_sum   'Zr12 V12 C4'
_cell_volume   459.85548722
_cell_formula_units_Z   4
loop_
 _symmetry_equiv_pos_site_id
 _symmetry_equiv_pos_as_xyz
  1  'x, y, z'
loop_
 _atom_site_type_symbol
 _atom_site_label
 _atom_site_symmetry_multiplicity
 _atom_site_fract_x
 _atom_site_fract_y
 _atom_site_fract_z
 _atom_site_occupancy
  Zr  Zr0  1  0.19103000  0.80897000  0.19103000  1
  Zr  Zr1  1  0.44103000  0.05897000  0.05897000  1
  Zr  Zr2  1  0.05897000  0.44103000  0.44103000  1
  Zr  Zr3  1  0.44103000  0.05897000  0.44103000  1
  Zr  Zr4  1  0.05897000  0.05897000  0.44103000  1
  Zr  Zr5  1  0.44103000  0.44103000  0.05897000  1
  Zr  Zr6  1  0.19103000  0.19103000  0.80897000  1
  Zr  Zr7  1  0.80897000  0.19103000  0.19103000  1
  Zr  Zr8  1  0.19103000  0.80897000  0.80897000  1
  Zr  Zr9  1  0.80897000  0.80897000  0.19103000  1
  Zr  Zr10  1  0.05897000  0.44103000  0.05897000  1
  Zr  Zr11  1  0.80897000  0.19103000  0.80897000  1
  V  V12  1  0.62500000  0.62500000  0.62500000  1
  V  V13  1  0.12500000  0.62500000  0.62500000  1
  V  V14  1  0.62500000  0.12500000  0.62500000  1
  V  V15  1  0.62500000  0.62500000  0.12500000  1
  V  V16  1  0.82614100  0.82614100  0.82614100  1
  V  V17  1  0.72842400  0.42385900  0.42385900  1
  V  V18  1  0.42385900  0.72842400  0.42385900  1
  V  V19  1  0.42385900  0.42385900  0.72842400  1
  V  V20  1  0.82614100  0.52157600  0.82614100  1
  V  V21  1  0.82614100  0.82614100  0.52157600  1
  V  V22  1  0.52157600  0.82614100  0.82614100  1
  V  V23  1  0.42385900  0.42385900  0.42385900  1
  C  C24  1  0.12500000  0.12500000  0.12500000  1
  C  C25  1  0.62500000  0.12500000  0.12500000  1
  C  C26  1  0.12500000  0.62500000  0.12500000  1
  C  C27  1  0.12500000  0.12500000  0.62500000  1
