# generated using pymatgen
data_Ba2Co(PO4)2
_symmetry_space_group_name_H-M   'P 1'
_cell_length_a   9.01969400
_cell_length_b   5.38556900
_cell_length_c   17.09798728
_cell_angle_alpha   72.63113459
_cell_angle_beta   90.00000000
_cell_angle_gamma   90.00000000
_symmetry_Int_Tables_number   1
_chemical_formula_structural   Ba2Co(PO4)2
_chemical_formula_sum   'Ba8 Co4 P8 O32'
_cell_volume   792.68390728
_cell_formula_units_Z   4
loop_
 _symmetry_equiv_pos_site_id
 _symmetry_equiv_pos_as_xyz
  1  'x, y, z'
loop_
 _atom_site_type_symbol
 _atom_site_label
 _atom_site_symmetry_multiplicity
 _atom_site_fract_x
 _atom_site_fract_y
 _atom_site_fract_z
 _atom_site_occupancy
  Ba  Ba0  1  0.20221100  0.68951300  0.51863800  1
  Ba  Ba1  1  0.70221100  0.31048700  0.98136200  1
  Ba  Ba2  1  0.79778900  0.31048700  0.48136200  1
  Ba  Ba3  1  0.29778900  0.68951300  0.01863800  1
  Ba  Ba4  1  0.65596000  0.52115100  0.23057300  1
  Ba  Ba5  1  0.15596000  0.47884900  0.26942700  1
  Ba  Ba6  1  0.34404000  0.47884900  0.76942700  1
  Ba  Ba7  1  0.84404000  0.52115100  0.73057300  1
  Co  Co8  1  0.01711500  0.09559700  0.13554100  1
  Co  Co9  1  0.51711500  0.90440300  0.36445900  1
  Co  Co10  1  0.48288500  0.09559700  0.63554100  1
  Co  Co11  1  0.98288500  0.90440300  0.86445900  1
  P  P12  1  0.89039800  0.91792300  0.33387500  1
  P  P13  1  0.39039800  0.08207700  0.16612500  1
  P  P14  1  0.10960200  0.08207700  0.66612500  1
  P  P15  1  0.60960200  0.91792300  0.83387500  1
  P  P16  1  0.90665100  0.68537000  0.07659500  1
  P  P17  1  0.59334900  0.68537000  0.57659500  1
  P  P18  1  0.09334900  0.31463000  0.92340500  1
  P  P19  1  0.40665100  0.31463000  0.42340500  1
  O  O20  1  0.97516900  0.89372600  0.25665500  1
  O  O21  1  0.47516900  0.10627400  0.24334500  1
  O  O22  1  0.02483100  0.10627400  0.74334500  1
  O  O23  1  0.52483100  0.89372600  0.75665500  1
  O  O24  1  0.88792900  0.20676700  0.33428200  1
  O  O25  1  0.38792900  0.79323300  0.16571800  1
  O  O26  1  0.11207100  0.79323300  0.66571800  1
  O  O27  1  0.61207100  0.20676700  0.83428200  1
  O  O28  1  0.72900300  0.81379800  0.32972600  1
  O  O29  1  0.22900300  0.18620200  0.17027400  1
  O  O30  1  0.27099700  0.18620200  0.67027400  1
  O  O31  1  0.77099700  0.81379800  0.82972600  1
  O  O32  1  0.96906300  0.74153900  0.41173800  1
  O  O33  1  0.46906300  0.25846100  0.08826200  1
  O  O34  1  0.03093700  0.25846100  0.58826200  1
  O  O35  1  0.53093700  0.74153900  0.91173800  1
  O  O36  1  0.86726700  0.39559300  0.12523400  1
  O  O37  1  0.36726700  0.60440700  0.37476600  1
  O  O38  1  0.13273300  0.60440700  0.87476600  1
  O  O39  1  0.63273300  0.39559300  0.62523400  1
  O  O40  1  0.59881100  0.71689400  0.48454200  1
  O  O41  1  0.09881100  0.28310600  0.01545800  1
  O  O42  1  0.40118900  0.28310600  0.51545800  1
  O  O43  1  0.90118900  0.71689400  0.98454200  1
  O  O44  1  0.70756400  0.86653700  0.60041600  1
  O  O45  1  0.20756400  0.13346300  0.89958400  1
  O  O46  1  0.06152600  0.74982000  0.10707000  1
  O  O47  1  0.79243600  0.86653700  0.10041600  1
  O  O48  1  0.43847400  0.74982000  0.60707000  1
  O  O49  1  0.93847400  0.25018000  0.89293000  1
  O  O50  1  0.56152600  0.25018000  0.39293000  1
  O  O51  1  0.29243600  0.13346300  0.39958400  1
