# generated using pymatgen
data_SmMnSbO
_symmetry_space_group_name_H-M   'P 1'
_cell_length_a   4.20941600
_cell_length_b   4.20941600
_cell_length_c   9.66695500
_cell_angle_alpha   90.00000000
_cell_angle_beta   90.00000000
_cell_angle_gamma   90.00000000
_symmetry_Int_Tables_number   1
_chemical_formula_structural   SmMnSbO
_chemical_formula_sum   'Sm2 Mn2 Sb2 O2'
_cell_volume   171.29054529
_cell_formula_units_Z   2
loop_
 _symmetry_equiv_pos_site_id
 _symmetry_equiv_pos_as_xyz
  1  'x, y, z'
loop_
 _atom_site_type_symbol
 _atom_site_label
 _atom_site_symmetry_multiplicity
 _atom_site_fract_x
 _atom_site_fract_y
 _atom_site_fract_z
 _atom_site_occupancy
  Sm  Sm0  1  0.50000000  0.00000000  0.89033400  1
  Sm  Sm1  1  0.00000000  0.50000000  0.10966600  1
  Mn  Mn2  1  0.50000000  0.50000000  0.50000000  1
  Mn  Mn3  1  0.00000000  0.00000000  0.50000000  1
  Sb  Sb4  1  0.00000000  0.50000000  0.69396700  1
  Sb  Sb5  1  0.50000000  0.00000000  0.30603300  1
  O  O6  1  0.00000000  0.00000000  0.00000000  1
  O  O7  1  0.50000000  0.50000000  0.00000000  1
