# generated using pymatgen
data_Sm10S19
_symmetry_space_group_name_H-M   'P 1'
_cell_length_a   8.84848400
_cell_length_b   8.84848400
_cell_length_c   16.07612000
_cell_angle_alpha   90.00000000
_cell_angle_beta   90.00000000
_cell_angle_gamma   90.00000000
_symmetry_Int_Tables_number   1
_chemical_formula_structural   Sm10S19
_chemical_formula_sum   'Sm20 S38'
_cell_volume   1258.69057190
_cell_formula_units_Z   2
loop_
 _symmetry_equiv_pos_site_id
 _symmetry_equiv_pos_as_xyz
  1  'x, y, z'
loop_
 _atom_site_type_symbol
 _atom_site_label
 _atom_site_symmetry_multiplicity
 _atom_site_fract_x
 _atom_site_fract_y
 _atom_site_fract_z
 _atom_site_occupancy
  Sm  Sm0  1  0.80492800  0.10426400  0.85333000  1
  Sm  Sm1  1  0.39573600  0.30492800  0.35333000  1
  Sm  Sm2  1  0.60426400  0.69507200  0.35333000  1
  Sm  Sm3  1  0.19507200  0.89573600  0.85333000  1
  Sm  Sm4  1  0.69507200  0.39573600  0.64667000  1
  Sm  Sm5  1  0.10426400  0.19507200  0.14667000  1
  Sm  Sm6  1  0.89573600  0.80492800  0.14667000  1
  Sm  Sm7  1  0.30492800  0.60426400  0.64667000  1
  Sm  Sm8  1  0.79109300  0.09798600  0.37178100  1
  Sm  Sm9  1  0.40201400  0.29109300  0.87178100  1
  Sm  Sm10  1  0.59798600  0.70890700  0.87178100  1
  Sm  Sm11  1  0.20890700  0.90201400  0.37178100  1
  Sm  Sm12  1  0.70890700  0.40201400  0.12821900  1
  Sm  Sm13  1  0.09798600  0.20890700  0.62821900  1
  Sm  Sm14  1  0.90201400  0.79109300  0.62821900  1
  Sm  Sm15  1  0.29109300  0.59798600  0.12821900  1
  Sm  Sm16  1  0.50000000  0.00000000  0.13491300  1
  Sm  Sm17  1  0.50000000  0.00000000  0.63491300  1
  Sm  Sm18  1  0.00000000  0.50000000  0.36508700  1
  Sm  Sm19  1  0.00000000  0.50000000  0.86508700  1
  S  S20  1  0.50000000  0.50000000  0.00000000  1
  S  S21  1  0.00000000  0.00000000  0.50000000  1
  S  S22  1  0.55566600  0.21965200  0.50077200  1
  S  S23  1  0.28034800  0.05566600  0.00077200  1
  S  S24  1  0.71965200  0.94433400  0.00077200  1
  S  S25  1  0.44433400  0.78034800  0.50077200  1
  S  S26  1  0.94433400  0.28034800  0.99922800  1
  S  S27  1  0.21965200  0.44433400  0.49922800  1
  S  S28  1  0.78034800  0.55566600  0.49922800  1
  S  S29  1  0.05566600  0.71965200  0.99922800  1
  S  S30  1  0.63788100  0.17535100  0.99984800  1
  S  S31  1  0.32464900  0.13788100  0.49984800  1
  S  S32  1  0.67535100  0.86211900  0.49984800  1
  S  S33  1  0.36211900  0.82464900  0.99984800  1
  S  S34  1  0.86211900  0.32464900  0.50015200  1
  S  S35  1  0.17535100  0.36211900  0.00015200  1
  S  S36  1  0.82464900  0.63788100  0.00015200  1
  S  S37  1  0.13788100  0.67535100  0.50015200  1
  S  S38  1  0.00000000  0.50000000  0.18487300  1
  S  S39  1  0.00000000  0.50000000  0.68487300  1
  S  S40  1  0.30319600  0.60162100  0.31218400  1
  S  S41  1  0.89837900  0.80319600  0.81218400  1
  S  S42  1  0.10162100  0.19680400  0.81218400  1
  S  S43  1  0.69680400  0.39837900  0.31218400  1
  S  S44  1  0.19680400  0.89837900  0.18781600  1
  S  S45  1  0.60162100  0.69680400  0.68781600  1
  S  S46  1  0.39837900  0.30319600  0.68781600  1
  S  S47  1  0.80319600  0.10162100  0.18781600  1
  S  S48  1  0.29892500  0.59808800  0.82298300  1
  S  S49  1  0.90191200  0.79892500  0.32298300  1
  S  S50  1  0.09808800  0.20107500  0.32298300  1
  S  S51  1  0.70107500  0.40191200  0.82298300  1
  S  S52  1  0.20107500  0.90191200  0.67701700  1
  S  S53  1  0.59808800  0.70107500  0.17701700  1
  S  S54  1  0.40191200  0.29892500  0.17701700  1
  S  S55  1  0.79892500  0.09808800  0.67701700  1
  S  S56  1  0.50000000  0.00000000  0.81512700  1
  S  S57  1  0.50000000  0.00000000  0.31512700  1
