# generated using pymatgen
data_K3B12H12Br
_symmetry_space_group_name_H-M   'P 1'
_cell_length_a   6.95620599
_cell_length_b   6.95620599
_cell_length_c   6.95620621
_cell_angle_alpha   94.26620409
_cell_angle_beta   94.26620409
_cell_angle_gamma   94.26619959
_symmetry_Int_Tables_number   1
_chemical_formula_structural   K3B12H12Br
_chemical_formula_sum   'K3 B12 H12 Br1'
_cell_volume   333.65691523
_cell_formula_units_Z   1
loop_
 _symmetry_equiv_pos_site_id
 _symmetry_equiv_pos_as_xyz
  1  'x, y, z'
loop_
 _atom_site_type_symbol
 _atom_site_label
 _atom_site_symmetry_multiplicity
 _atom_site_fract_x
 _atom_site_fract_y
 _atom_site_fract_z
 _atom_site_occupancy
  K  K0  1  0.50000000  0.50000000  0.00000000  1
  K  K1  1  0.50000000  0.00000000  0.50000000  1
  K  K2  1  0.00000000  0.50000000  0.50000000  1
  B  B3  1  0.76317300  0.93704900  0.93704900  1
  B  B4  1  0.93704900  0.93704900  0.76317300  1
  B  B5  1  0.93704900  0.76317300  0.93704900  1
  B  B6  1  0.06295100  0.23682700  0.06295100  1
  B  B7  1  0.23682700  0.06295100  0.06295100  1
  B  B8  1  0.06295100  0.06295100  0.23682700  1
  B  B9  1  0.84065100  0.12280600  0.12280600  1
  B  B10  1  0.12280600  0.12280600  0.84065100  1
  B  B11  1  0.12280600  0.84065100  0.12280600  1
  B  B12  1  0.87719400  0.15934900  0.87719400  1
  B  B13  1  0.15934900  0.87719400  0.87719400  1
  B  B14  1  0.87719400  0.87719400  0.15934900  1
  H  H15  1  0.40488200  0.10847900  0.10847900  1
  H  H16  1  0.10847900  0.10847900  0.40488200  1
  H  H17  1  0.10847900  0.40488200  0.10847900  1
  H  H18  1  0.89152100  0.59511800  0.89152100  1
  H  H19  1  0.59511800  0.89152100  0.89152100  1
  H  H20  1  0.89152100  0.89152100  0.59511800  1
  H  H21  1  0.72877100  0.21150200  0.21150200  1
  H  H22  1  0.21150200  0.21150200  0.72877100  1
  H  H23  1  0.21150200  0.72877100  0.21150200  1
  H  H24  1  0.78849800  0.27122900  0.78849800  1
  H  H25  1  0.27122900  0.78849800  0.78849800  1
  H  H26  1  0.78849800  0.78849800  0.27122900  1
  Br  Br27  1  0.50000000  0.50000000  0.50000000  1
