# generated using pymatgen
data_RbBSe3
_symmetry_space_group_name_H-M   'P 1'
_cell_length_a   12.70116300
_cell_length_b   6.28383900
_cell_length_c   7.50395862
_cell_angle_alpha   75.34263111
_cell_angle_beta   90.00000000
_cell_angle_gamma   90.00000000
_symmetry_Int_Tables_number   1
_chemical_formula_structural   RbBSe3
_chemical_formula_sum   'Rb4 B4 Se12'
_cell_volume   579.41578693
_cell_formula_units_Z   4
loop_
 _symmetry_equiv_pos_site_id
 _symmetry_equiv_pos_as_xyz
  1  'x, y, z'
loop_
 _atom_site_type_symbol
 _atom_site_label
 _atom_site_symmetry_multiplicity
 _atom_site_fract_x
 _atom_site_fract_y
 _atom_site_fract_z
 _atom_site_occupancy
  Rb  Rb0  1  0.92218900  0.29013500  0.25809500  1
  Rb  Rb1  1  0.42218900  0.20986500  0.74190500  1
  Rb  Rb2  1  0.07781100  0.70986500  0.74190500  1
  Rb  Rb3  1  0.57781100  0.79013500  0.25809500  1
  B  B4  1  0.76808800  0.30951000  0.70597700  1
  B  B5  1  0.26808800  0.19049000  0.29402300  1
  B  B6  1  0.23191200  0.69049000  0.29402300  1
  B  B7  1  0.73191200  0.80951000  0.70597700  1
  Se  Se8  1  0.82065700  0.81685300  0.93966100  1
  Se  Se9  1  0.32065700  0.68314700  0.06033900  1
  Se  Se10  1  0.17934300  0.18314700  0.06033900  1
  Se  Se11  1  0.67934300  0.31685300  0.93966100  1
  Se  Se12  1  0.59235200  0.65885900  0.80398300  1
  Se  Se13  1  0.09235200  0.84114100  0.19601700  1
  Se  Se14  1  0.40764800  0.34114100  0.19601700  1
  Se  Se15  1  0.90764800  0.15885900  0.80398300  1
  Se  Se16  1  0.80336300  0.62005300  0.54775000  1
  Se  Se17  1  0.30336300  0.87994700  0.45225000  1
  Se  Se18  1  0.19663700  0.37994700  0.45225000  1
  Se  Se19  1  0.69663700  0.12005300  0.54775000  1
