# generated using pymatgen
data_AlSiP3
_symmetry_space_group_name_H-M   'P 1'
_cell_length_a   5.89959000
_cell_length_b   6.14251400
_cell_length_c   9.90648900
_cell_angle_alpha   90.00000000
_cell_angle_beta   90.00000000
_cell_angle_gamma   90.00000000
_symmetry_Int_Tables_number   1
_chemical_formula_structural   AlSiP3
_chemical_formula_sum   'Al4 Si4 P12'
_cell_volume   358.99446070
_cell_formula_units_Z   4
loop_
 _symmetry_equiv_pos_site_id
 _symmetry_equiv_pos_as_xyz
  1  'x, y, z'
loop_
 _atom_site_type_symbol
 _atom_site_label
 _atom_site_symmetry_multiplicity
 _atom_site_fract_x
 _atom_site_fract_y
 _atom_site_fract_z
 _atom_site_occupancy
  Al  Al0  1  0.00000000  0.00000000  0.00000000  1
  Al  Al1  1  0.50000000  0.50000000  0.50000000  1
  Al  Al2  1  0.50000000  0.50000000  0.00000000  1
  Al  Al3  1  0.00000000  0.00000000  0.50000000  1
  Si  Si4  1  0.99963000  0.56324800  0.75000000  1
  Si  Si5  1  0.00037000  0.43675200  0.25000000  1
  Si  Si6  1  0.50037000  0.06324800  0.25000000  1
  Si  Si7  1  0.49963000  0.93675200  0.75000000  1
  P  P8  1  0.38729400  0.58610500  0.75000000  1
  P  P9  1  0.11038400  0.60748400  0.44156800  1
  P  P10  1  0.61038400  0.89251600  0.05843200  1
  P  P11  1  0.38961600  0.10748400  0.55843200  1
  P  P12  1  0.38961600  0.10748400  0.94156800  1
  P  P13  1  0.88961600  0.39251600  0.55843200  1
  P  P14  1  0.11038400  0.60748400  0.05843200  1
  P  P15  1  0.61038400  0.89251600  0.44156800  1
  P  P16  1  0.88729400  0.91389500  0.75000000  1
  P  P17  1  0.11270600  0.08610500  0.25000000  1
  P  P18  1  0.61270600  0.41389500  0.25000000  1
  P  P19  1  0.88961600  0.39251600  0.94156800  1
