# generated using pymatgen
data_B8O
_symmetry_space_group_name_H-M   'P 1'
_cell_length_a   5.31877700
_cell_length_b   7.35855700
_cell_length_c   10.27196491
_cell_angle_alpha   87.60457924
_cell_angle_beta   90.00000000
_cell_angle_gamma   90.00000000
_symmetry_Int_Tables_number   1
_chemical_formula_structural   B8O
_chemical_formula_sum   'B48 O6'
_cell_volume   401.67823846
_cell_formula_units_Z   6
loop_
 _symmetry_equiv_pos_site_id
 _symmetry_equiv_pos_as_xyz
  1  'x, y, z'
loop_
 _atom_site_type_symbol
 _atom_site_label
 _atom_site_symmetry_multiplicity
 _atom_site_fract_x
 _atom_site_fract_y
 _atom_site_fract_z
 _atom_site_occupancy
  B  B0  1  0.41610600  0.08316300  0.20967000  1
  B  B1  1  0.46924200  0.67631900  0.30082500  1
  B  B2  1  0.48473500  0.80903600  0.44128900  1
  B  B3  1  0.91933600  0.58067800  0.45657800  1
  B  B4  1  0.58066400  0.58067800  0.45657800  1
  B  B5  1  0.41933600  0.41932200  0.54342200  1
  B  B6  1  0.75000000  0.74879000  0.53870300  1
  B  B7  1  0.96924200  0.32368100  0.69917500  1
  B  B8  1  0.53075800  0.32368100  0.69917500  1
  B  B9  1  0.41961200  0.08827500  0.71389600  1
  B  B10  1  0.25000000  0.25715500  0.79648400  1
  B  B11  1  0.48993200  0.68537600  0.80154400  1
  B  B12  1  0.75000000  0.53092200  0.80094000  1
  B  B13  1  0.75000000  0.95044400  0.93650800  1
  B  B14  1  0.48825400  0.80839400  0.94318000  1
  B  B15  1  0.91493500  0.57579100  0.95445300  1
  B  B16  1  0.58506500  0.57579100  0.95445300  1
  B  B17  1  0.41493500  0.42420900  0.04554700  1
  B  B18  1  0.51174600  0.19160600  0.05682000  1
  B  B19  1  0.98825400  0.19160600  0.05682000  1
  B  B20  1  0.25000000  0.04955600  0.06349200  1
  B  B21  1  0.75000000  0.74361700  0.03905700  1
  B  B22  1  0.75000000  0.74284500  0.20351600  1
  B  B23  1  0.98993200  0.31462400  0.19845600  1
  B  B24  1  0.51006800  0.31462400  0.19845600  1
  B  B25  1  0.08389400  0.08316300  0.20967000  1
  B  B26  1  0.58038800  0.91172500  0.28610400  1
  B  B27  1  0.91961200  0.91172500  0.28610400  1
  B  B28  1  0.03075800  0.67631900  0.30082500  1
  B  B29  1  0.25000000  0.25169200  0.29638000  1
  B  B30  1  0.75000000  0.54587800  0.31278500  1
  B  B31  1  0.75000000  0.94955500  0.43301400  1
  B  B32  1  0.01526500  0.80903600  0.44128900  1
  B  B33  1  0.08066400  0.41932200  0.54342200  1
  B  B34  1  0.51526500  0.19096400  0.55871100  1
  B  B35  1  0.98473500  0.19096400  0.55871100  1
  B  B36  1  0.25000000  0.05044500  0.56698600  1
  B  B37  1  0.25000000  0.45412200  0.68721500  1
  B  B38  1  0.75000000  0.74830800  0.70362000  1
  B  B39  1  0.08038800  0.08827500  0.71389600  1
  B  B40  1  0.58389400  0.91683700  0.79033000  1
  B  B41  1  0.91610600  0.91683700  0.79033000  1
  B  B42  1  0.01006800  0.68537600  0.80154400  1
  B  B43  1  0.25000000  0.25638300  0.96094300  1
  B  B44  1  0.01174600  0.80839400  0.94318000  1
  B  B45  1  0.08506500  0.42420900  0.04554700  1
  B  B46  1  0.25000000  0.46907800  0.19906000  1
  B  B47  1  0.25000000  0.25121000  0.46129700  1
  O  O48  1  0.25000000  0.87204200  0.50287500  1
  O  O49  1  0.25000000  0.63261900  0.74349000  1
  O  O50  1  0.75000000  0.13120400  0.99673800  1
  O  O51  1  0.25000000  0.86879600  0.00326200  1
  O  O52  1  0.75000000  0.36738100  0.25651000  1
  O  O53  1  0.75000000  0.12795800  0.49712500  1
