# generated using pymatgen
data_SiO2
_symmetry_space_group_name_H-M   'P 1'
_cell_length_a   17.17723039
_cell_length_b   17.17723039
_cell_length_c   12.88105400
_cell_angle_alpha   90.00000000
_cell_angle_beta   90.00000000
_cell_angle_gamma   120.00000151
_symmetry_Int_Tables_number   1
_chemical_formula_structural   SiO2
_chemical_formula_sum   'Si54 O108'
_cell_volume   3291.45792205
_cell_formula_units_Z   54
loop_
 _symmetry_equiv_pos_site_id
 _symmetry_equiv_pos_as_xyz
  1  'x, y, z'
loop_
 _atom_site_type_symbol
 _atom_site_label
 _atom_site_symmetry_multiplicity
 _atom_site_fract_x
 _atom_site_fract_y
 _atom_site_fract_z
 _atom_site_occupancy
  Si  Si0  1  0.17914700  0.98456700  0.00000000  1
  Si  Si1  1  0.18005500  0.99058200  0.37956000  1
  Si  Si2  1  0.18005500  0.99058200  0.62044000  1
  Si  Si3  1  0.30231000  0.99881400  0.19504700  1
  Si  Si4  1  0.30231000  0.99881400  0.80495300  1
  Si  Si5  1  0.16296200  0.68408800  0.12339500  1
  Si  Si6  1  0.16296200  0.68408800  0.87660500  1
  Si  Si7  1  0.00118600  0.30349600  0.19504700  1
  Si  Si8  1  0.00118600  0.30349600  0.80495300  1
  Si  Si9  1  0.14472200  0.49674500  0.12344200  1
  Si  Si10  1  0.14472200  0.49674500  0.87655800  1
  Si  Si11  1  0.00941800  0.18947400  0.62044000  1
  Si  Si12  1  0.00941800  0.18947400  0.37956000  1
  Si  Si13  1  0.01543300  0.19458000  0.00000000  1
  Si  Si14  1  0.35202300  0.85527800  0.87655800  1
  Si  Si15  1  0.35202300  0.85527800  0.12344200  1
  Si  Si16  1  0.31591200  0.47887500  0.12339500  1
  Si  Si17  1  0.31591200  0.47887500  0.87660500  1
  Si  Si18  1  0.18947400  0.18005500  0.37956000  1
  Si  Si19  1  0.18947400  0.18005500  0.62044000  1
  Si  Si20  1  0.19458000  0.17914700  0.00000000  1
  Si  Si21  1  0.52112500  0.83703800  0.87660500  1
  Si  Si22  1  0.52112500  0.83703800  0.12339500  1
  Si  Si23  1  0.30349600  0.30231000  0.19504700  1
  Si  Si24  1  0.30349600  0.30231000  0.80495300  1
  Si  Si25  1  0.50325500  0.64797700  0.12344200  1
  Si  Si26  1  0.50325500  0.64797700  0.87655800  1
  Si  Si27  1  0.49674500  0.35202300  0.12344200  1
  Si  Si28  1  0.49674500  0.35202300  0.87655800  1
  Si  Si29  1  0.69650400  0.69769000  0.19504700  1
  Si  Si30  1  0.69650400  0.69769000  0.80495300  1
  Si  Si31  1  0.47887500  0.16296200  0.87660500  1
  Si  Si32  1  0.47887500  0.16296200  0.12339500  1
  Si  Si33  1  0.80542000  0.82085300  0.00000000  1
  Si  Si34  1  0.81052600  0.81994500  0.37956000  1
  Si  Si35  1  0.81052600  0.81994500  0.62044000  1
  Si  Si36  1  0.68408800  0.52112500  0.87660500  1
  Si  Si37  1  0.68408800  0.52112500  0.12339500  1
  Si  Si38  1  0.64797700  0.14472200  0.12344200  1
  Si  Si39  1  0.64797700  0.14472200  0.87655800  1
  Si  Si40  1  0.98456700  0.80542000  0.00000000  1
  Si  Si41  1  0.99058200  0.81052600  0.37956000  1
  Si  Si42  1  0.99058200  0.81052600  0.62044000  1
  Si  Si43  1  0.85527800  0.50325500  0.12344200  1
  Si  Si44  1  0.85527800  0.50325500  0.87655800  1
  Si  Si45  1  0.99881400  0.69650400  0.19504700  1
  Si  Si46  1  0.99881400  0.69650400  0.80495300  1
  Si  Si47  1  0.83703800  0.31591200  0.12339500  1
  Si  Si48  1  0.83703800  0.31591200  0.87660500  1
  Si  Si49  1  0.69769000  0.00118600  0.80495300  1
  Si  Si50  1  0.69769000  0.00118600  0.19504700  1
  Si  Si51  1  0.81994500  0.00941800  0.62044000  1
  Si  Si52  1  0.81994500  0.00941800  0.37956000  1
  Si  Si53  1  0.82085300  0.01543300  0.00000000  1
  O  O54  1  0.41084000  0.33993200  0.81148800  1
  O  O55  1  0.41084000  0.33993200  0.18851200  1
  O  O56  1  0.07090800  0.41084000  0.81148800  1
  O  O57  1  0.07090800  0.41084000  0.18851200  1
  O  O58  1  0.44434000  0.85963400  0.83867200  1
  O  O59  1  0.44434000  0.85963400  0.16132800  1
  O  O60  1  0.64272000  0.12144200  0.00000000  1
  O  O61  1  0.54145900  0.85902900  0.00000000  1
  O  O62  1  0.73152400  0.24539600  0.14550800  1
  O  O63  1  0.73152400  0.24539600  0.85449200  1
  O  O64  1  0.48612800  0.73152400  0.14550800  1
  O  O65  1  0.48612800  0.73152400  0.85449200  1
  O  O66  1  0.85963400  0.41529400  0.16132800  1
  O  O67  1  0.85963400  0.41529400  0.83867200  1
  O  O68  1  0.61393500  0.89842200  0.18675600  1
  O  O69  1  0.61393500  0.89842200  0.81324400  1
  O  O70  1  0.52127800  0.64272000  0.00000000  1
  O  O71  1  0.85902900  0.31757000  0.00000000  1
  O  O72  1  0.74519500  0.01350000  0.30717300  1
  O  O73  1  0.74519500  0.01350000  0.69282700  1
  O  O74  1  0.77025900  0.02180100  0.89677000  1
  O  O75  1  0.77025900  0.02180100  0.10323000  1
  O  O76  1  0.89842200  0.28448700  0.18675600  1
  O  O77  1  0.89842200  0.28448700  0.81324400  1
  O  O78  1  0.79244900  0.01116700  0.50000000  1
  O  O79  1  0.73169500  0.74519500  0.69282700  1
  O  O80  1  0.73169500  0.74519500  0.30717300  1
  O  O81  1  0.82393600  0.91868600  0.64500000  1
  O  O82  1  0.82393600  0.91868600  0.35500000  1
  O  O83  1  0.74845800  0.77025900  0.89677000  1
  O  O84  1  0.74845800  0.77025900  0.10323000  1
  O  O85  1  0.58470600  0.44434000  0.83867200  1
  O  O86  1  0.58470600  0.44434000  0.16132800  1
  O  O87  1  0.82409000  0.92295800  0.00000000  1
  O  O88  1  0.91868600  0.09475100  0.64500000  1
  O  O89  1  0.91868600  0.09475100  0.35500000  1
  O  O90  1  0.92295800  0.09886700  0.00000000  1
  O  O91  1  0.33993200  0.92909200  0.81148800  1
  O  O92  1  0.33993200  0.92909200  0.18851200  1
  O  O93  1  0.78128100  0.79244900  0.50000000  1
  O  O94  1  0.01350000  0.26830500  0.69282700  1
  O  O95  1  0.01350000  0.26830500  0.30717300  1
  O  O96  1  0.12144200  0.47872200  0.00000000  1
  O  O97  1  0.02180100  0.25154200  0.10323000  1
  O  O98  1  0.02180100  0.25154200  0.89677000  1
  O  O99  1  0.01116700  0.21871900  0.50000000  1
  O  O100  1  0.71551300  0.61393500  0.81324400  1
  O  O101  1  0.71551300  0.61393500  0.18675600  1
  O  O102  1  0.68243000  0.54145900  0.00000000  1
  O  O103  1  0.24539600  0.51387200  0.14550800  1
  O  O104  1  0.24539600  0.51387200  0.85449200  1
  O  O105  1  0.90113300  0.82409000  0.00000000  1
  O  O106  1  0.90524900  0.82393600  0.64500000  1
  O  O107  1  0.90524900  0.82393600  0.35500000  1
  O  O108  1  0.09475100  0.17606400  0.64500000  1
  O  O109  1  0.09475100  0.17606400  0.35500000  1
  O  O110  1  0.09886700  0.17591000  0.00000000  1
  O  O111  1  0.75460400  0.48612800  0.14550800  1
  O  O112  1  0.75460400  0.48612800  0.85449200  1
  O  O113  1  0.31757000  0.45854100  0.00000000  1
  O  O114  1  0.28448700  0.38606500  0.81324400  1
  O  O115  1  0.28448700  0.38606500  0.18675600  1
  O  O116  1  0.98883300  0.78128100  0.50000000  1
  O  O117  1  0.97819900  0.74845800  0.10323000  1
  O  O118  1  0.97819900  0.74845800  0.89677000  1
  O  O119  1  0.87855800  0.52127800  0.00000000  1
  O  O120  1  0.98650000  0.73169500  0.69282700  1
  O  O121  1  0.98650000  0.73169500  0.30717300  1
  O  O122  1  0.21871900  0.20755100  0.50000000  1
  O  O123  1  0.66006800  0.07090800  0.81148800  1
  O  O124  1  0.66006800  0.07090800  0.18851200  1
  O  O125  1  0.07704200  0.90113300  0.00000000  1
  O  O126  1  0.08131400  0.90524900  0.64500000  1
  O  O127  1  0.08131400  0.90524900  0.35500000  1
  O  O128  1  0.17591000  0.07704200  0.00000000  1
  O  O129  1  0.41529400  0.55566000  0.83867200  1
  O  O130  1  0.41529400  0.55566000  0.16132800  1
  O  O131  1  0.25154200  0.22974100  0.89677000  1
  O  O132  1  0.25154200  0.22974100  0.10323000  1
  O  O133  1  0.17606400  0.08131400  0.64500000  1
  O  O134  1  0.17606400  0.08131400  0.35500000  1
  O  O135  1  0.26830500  0.25480500  0.69282700  1
  O  O136  1  0.26830500  0.25480500  0.30717300  1
  O  O137  1  0.20755100  0.98883300  0.50000000  1
  O  O138  1  0.10157800  0.71551300  0.18675600  1
  O  O139  1  0.10157800  0.71551300  0.81324400  1
  O  O140  1  0.22974100  0.97819900  0.89677000  1
  O  O141  1  0.22974100  0.97819900  0.10323000  1
  O  O142  1  0.25480500  0.98650000  0.30717300  1
  O  O143  1  0.25480500  0.98650000  0.69282700  1
  O  O144  1  0.14097100  0.68243000  0.00000000  1
  O  O145  1  0.47872200  0.35728000  0.00000000  1
  O  O146  1  0.38606500  0.10157800  0.18675600  1
  O  O147  1  0.38606500  0.10157800  0.81324400  1
  O  O148  1  0.14036600  0.58470600  0.16132800  1
  O  O149  1  0.14036600  0.58470600  0.83867200  1
  O  O150  1  0.51387200  0.26847600  0.14550800  1
  O  O151  1  0.51387200  0.26847600  0.85449200  1
  O  O152  1  0.26847600  0.75460400  0.14550800  1
  O  O153  1  0.26847600  0.75460400  0.85449200  1
  O  O154  1  0.45854100  0.14097100  0.00000000  1
  O  O155  1  0.35728000  0.87855800  0.00000000  1
  O  O156  1  0.55566000  0.14036600  0.83867200  1
  O  O157  1  0.55566000  0.14036600  0.16132800  1
  O  O158  1  0.92909200  0.58916000  0.81148800  1
  O  O159  1  0.92909200  0.58916000  0.18851200  1
  O  O160  1  0.58916000  0.66006800  0.81148800  1
  O  O161  1  0.58916000  0.66006800  0.18851200  1
