# generated using pymatgen
data_In4GeSe4
_symmetry_space_group_name_H-M   'P 1'
_cell_length_a   12.84671300
_cell_length_b   12.84671300
_cell_length_c   12.84671300
_cell_angle_alpha   90.00000000
_cell_angle_beta   90.00000000
_cell_angle_gamma   90.00000000
_symmetry_Int_Tables_number   1
_chemical_formula_structural   In4GeSe4
_chemical_formula_sum   'In32 Ge8 Se32'
_cell_volume   2120.19626850
_cell_formula_units_Z   8
loop_
 _symmetry_equiv_pos_site_id
 _symmetry_equiv_pos_as_xyz
  1  'x, y, z'
loop_
 _atom_site_type_symbol
 _atom_site_label
 _atom_site_symmetry_multiplicity
 _atom_site_fract_x
 _atom_site_fract_y
 _atom_site_fract_z
 _atom_site_occupancy
  In  In0  1  0.04008100  0.05954600  0.27774600  1
  In  In1  1  0.04008100  0.44045400  0.77774600  1
  In  In2  1  0.05954600  0.27774600  0.04008100  1
  In  In3  1  0.05954600  0.22225400  0.54008100  1
  In  In4  1  0.22139800  0.72139800  0.77860200  1
  In  In5  1  0.22139800  0.77860200  0.27860200  1
  In  In6  1  0.22225400  0.95991900  0.55954600  1
  In  In7  1  0.22225400  0.54008100  0.05954600  1
  In  In8  1  0.27774600  0.04008100  0.05954600  1
  In  In9  1  0.27774600  0.45991900  0.55954600  1
  In  In10  1  0.27860200  0.22139800  0.77860200  1
  In  In11  1  0.27860200  0.27860200  0.27860200  1
  In  In12  1  0.44045400  0.72225400  0.54008100  1
  In  In13  1  0.44045400  0.77774600  0.04008100  1
  In  In14  1  0.45991900  0.55954600  0.27774600  1
  In  In15  1  0.45991900  0.94045400  0.77774600  1
  In  In16  1  0.54008100  0.05954600  0.22225400  1
  In  In17  1  0.54008100  0.44045400  0.72225400  1
  In  In18  1  0.55954600  0.22225400  0.95991900  1
  In  In19  1  0.55954600  0.27774600  0.45991900  1
  In  In20  1  0.72139800  0.72139800  0.72139800  1
  In  In21  1  0.72139800  0.77860200  0.22139800  1
  In  In22  1  0.72225400  0.95991900  0.94045400  1
  In  In23  1  0.72225400  0.54008100  0.44045400  1
  In  In24  1  0.77774600  0.45991900  0.94045400  1
  In  In25  1  0.77774600  0.04008100  0.44045400  1
  In  In26  1  0.77860200  0.22139800  0.72139800  1
  In  In27  1  0.77860200  0.27860200  0.22139800  1
  In  In28  1  0.94045400  0.72225400  0.95991900  1
  In  In29  1  0.94045400  0.77774600  0.45991900  1
  In  In30  1  0.95991900  0.94045400  0.72225400  1
  In  In31  1  0.95991900  0.55954600  0.22225400  1
  Ge  Ge32  1  0.10082700  0.89917300  0.39917300  1
  Ge  Ge33  1  0.10082700  0.60082700  0.89917300  1
  Ge  Ge34  1  0.39917300  0.39917300  0.39917300  1
  Ge  Ge35  1  0.39917300  0.10082700  0.89917300  1
  Ge  Ge36  1  0.60082700  0.89917300  0.10082700  1
  Ge  Ge37  1  0.60082700  0.60082700  0.60082700  1
  Ge  Ge38  1  0.89917300  0.10082700  0.60082700  1
  Ge  Ge39  1  0.89917300  0.39917300  0.10082700  1
  Se  Se40  1  0.42504700  0.57495300  0.07495300  1
  Se  Se41  1  0.57495300  0.07495300  0.42504700  1
  Se  Se42  1  0.92504700  0.92504700  0.92504700  1
  Se  Se43  1  0.92504700  0.57495300  0.42504700  1
  Se  Se44  1  0.07507800  0.25709600  0.33211500  1
  Se  Se45  1  0.07507800  0.24290400  0.83211500  1
  Se  Se46  1  0.07495300  0.42504700  0.57495300  1
  Se  Se47  1  0.07495300  0.07495300  0.07495300  1
  Se  Se48  1  0.16788500  0.92492200  0.75709600  1
  Se  Se49  1  0.16788500  0.57507800  0.25709600  1
  Se  Se50  1  0.24290400  0.66788500  0.57507800  1
  Se  Se51  1  0.24290400  0.83211500  0.07507800  1
  Se  Se52  1  0.25709600  0.16788500  0.57507800  1
  Se  Se53  1  0.25709600  0.33211500  0.07507800  1
  Se  Se54  1  0.33211500  0.07507800  0.25709600  1
  Se  Se55  1  0.33211500  0.42492200  0.75709600  1
  Se  Se56  1  0.42504700  0.92504700  0.57495300  1
  Se  Se57  1  0.42492200  0.75709600  0.33211500  1
  Se  Se58  1  0.42492200  0.74290400  0.83211500  1
  Se  Se59  1  0.57507800  0.25709600  0.16788500  1
  Se  Se60  1  0.57507800  0.24290400  0.66788500  1
  Se  Se61  1  0.57495300  0.42504700  0.92504700  1
  Se  Se62  1  0.66788500  0.57507800  0.24290400  1
  Se  Se63  1  0.66788500  0.92492200  0.74290400  1
  Se  Se64  1  0.74290400  0.66788500  0.92492200  1
  Se  Se65  1  0.74290400  0.83211500  0.42492200  1
  Se  Se66  1  0.75709600  0.16788500  0.92492200  1
  Se  Se67  1  0.75709600  0.33211500  0.42492200  1
  Se  Se68  1  0.83211500  0.42492200  0.74290400  1
  Se  Se69  1  0.83211500  0.07507800  0.24290400  1
  Se  Se70  1  0.92492200  0.74290400  0.66788500  1
  Se  Se71  1  0.92492200  0.75709600  0.16788500  1
