# generated using pymatgen
data_Sc11Nb3O24
_symmetry_space_group_name_H-M   'P 1'
_cell_length_a   6.13825400
_cell_length_b   6.16848239
_cell_length_c   23.82119485
_cell_angle_alpha   92.98267829
_cell_angle_beta   92.89380511
_cell_angle_gamma   99.26060915
_symmetry_Int_Tables_number   1
_chemical_formula_structural   Sc11Nb3O24
_chemical_formula_sum   'Sc22 Nb6 O48'
_cell_volume   887.41076637
_cell_formula_units_Z   2
loop_
 _symmetry_equiv_pos_site_id
 _symmetry_equiv_pos_as_xyz
  1  'x, y, z'
loop_
 _atom_site_type_symbol
 _atom_site_label
 _atom_site_symmetry_multiplicity
 _atom_site_fract_x
 _atom_site_fract_y
 _atom_site_fract_z
 _atom_site_occupancy
  Sc  Sc0  1  0.76118400  0.57838200  0.90273300  1
  Sc  Sc1  1  0.50247600  0.32621600  0.65242300  1
  Sc  Sc2  1  0.46386600  0.17602200  0.78437100  1
  Sc  Sc3  1  0.28780000  0.80812400  0.67419700  1
  Sc  Sc4  1  0.25644800  0.06495200  0.40149300  1
  Sc  Sc5  1  0.20993200  0.91735600  0.53515000  1
  Sc  Sc6  1  0.02551200  0.56117500  0.41678000  1
  Sc  Sc7  1  0.00839500  0.82759800  0.15127900  1
  Sc  Sc8  1  0.99259900  0.99276100  0.00246900  1
  Sc  Sc9  1  0.26271000  0.58151300  0.96537900  1
  Sc  Sc10  1  0.96068100  0.67707200  0.28380000  1
  Sc  Sc11  1  0.22351100  0.68374200  0.83070400  1
  Sc  Sc12  1  0.78862700  0.31156100  0.17361300  1
  Sc  Sc13  1  0.03794000  0.32172200  0.71508800  1
  Sc  Sc14  1  0.71750300  0.42882800  0.03354900  1
  Sc  Sc15  1  0.98958800  0.17067200  0.84775800  1
  Sc  Sc16  1  0.96996700  0.43950900  0.58010300  1
  Sc  Sc17  1  0.79637300  0.07727100  0.46269300  1
  Sc  Sc18  1  0.72381600  0.18982900  0.33045100  1
  Sc  Sc19  1  0.53864100  0.82286700  0.21414500  1
  Sc  Sc20  1  0.49549000  0.67829200  0.34670400  1
  Sc  Sc21  1  0.47428600  0.94349400  0.07939900  1
  Nb  Nb22  1  0.75570800  0.75046500  0.75215200  1
  Nb  Nb23  1  0.53318300  0.06097400  0.92315200  1
  Nb  Nb24  1  0.49479200  0.48581900  0.49922100  1
  Nb  Nb25  1  0.25695800  0.25083800  0.25246300  1
  Nb  Nb26  1  0.73743600  0.91547200  0.59674400  1
  Nb  Nb27  1  0.24161600  0.41132500  0.09688300  1
  O  O28  1  0.84310800  0.01636700  0.92009300  1
  O  O29  1  0.89923700  0.65566100  0.98460200  1
  O  O30  1  0.63585800  0.78316600  0.67010400  1
  O  O31  1  0.67143100  0.26741600  0.85602200  1
  O  O32  1  0.63923800  0.42665200  0.73562600  1
  O  O33  1  0.38414800  0.53626100  0.42419600  1
  O  O34  1  0.45447100  0.82125500  0.77088400  1
  O  O35  1  0.42867000  0.01186800  0.60465700  1
  O  O36  1  0.51858900  0.36468000  0.95251900  1
  O  O37  1  0.38331800  0.17490300  0.49015800  1
  O  O38  1  0.13489500  0.28376300  0.16953900  1
  O  O39  1  0.47770800  0.72247400  0.89607900  1
  O  O40  1  0.21565900  0.57575300  0.52783300  1
  O  O41  1  0.17687400  0.76983500  0.35366300  1
  O  O42  1  0.28560200  0.12316200  0.70442700  1
  O  O43  1  0.14349500  0.92647900  0.23437500  1
  O  O44  1  0.28216000  0.03465500  0.85855800  1
  O  O45  1  0.22357500  0.46803500  0.64595200  1
  O  O46  1  0.95617200  0.32147200  0.26957500  1
  O  O47  1  0.21376400  0.37239700  0.79405300  1
  O  O48  1  0.93036200  0.51653000  0.10402900  1
  O  O49  1  0.03785200  0.87112000  0.45572500  1
  O  O50  1  0.29241700  0.92870800  0.97216600  1
  O  O51  1  0.01239900  0.78912900  0.60669300  1
  O  O52  1  0.98244200  0.21955900  0.39567700  1
  O  O53  1  0.68561400  0.08521900  0.01777100  1
  O  O54  1  0.95763800  0.11879800  0.54687100  1
  O  O55  1  0.07377600  0.47293600  0.89365200  1
  O  O56  1  0.78652600  0.62675500  0.20397500  1
  O  O57  1  0.03763000  0.67501800  0.72609900  1
  O  O58  1  0.77337400  0.53100800  0.35297800  1
  O  O59  1  0.72772700  0.97113900  0.14370900  1
  O  O60  1  0.85591100  0.07658700  0.76267100  1
  O  O61  1  0.71256600  0.87794100  0.29394600  1
  O  O62  1  0.81885400  0.20727600  0.64277900  1
  O  O63  1  0.79226400  0.42665800  0.47810800  1
  O  O64  1  0.52029600  0.29584400  0.10671000  1
  O  O65  1  0.87970600  0.73404500  0.82913700  1
  O  O66  1  0.61514600  0.83588900  0.51784400  1
  O  O67  1  0.46081100  0.62424500  0.04435500  1
  O  O68  1  0.57577400  0.98266400  0.39614100  1
  O  O69  1  0.53930900  0.17611200  0.22552900  1
  O  O70  1  0.63452300  0.49817200  0.58092300  1
  O  O71  1  0.36179000  0.57508700  0.26139200  1
  O  O72  1  0.32450600  0.70421300  0.14235300  1
  O  O73  1  0.37314000  0.23129300  0.32922000  1
  O  O74  1  0.11570800  0.33640500  0.01942300  1
  O  O75  1  0.14693000  0.00154500  0.08231200  1
