# generated using pymatgen
data_Ta2CuO6
_symmetry_space_group_name_H-M   'P 1'
_cell_length_a   7.57343700
_cell_length_b   7.60506900
_cell_length_c   15.19424300
_cell_angle_alpha   90.00000000
_cell_angle_beta   90.00000000
_cell_angle_gamma   90.00000000
_symmetry_Int_Tables_number   1
_chemical_formula_structural   Ta2CuO6
_chemical_formula_sum   'Ta16 Cu8 O48'
_cell_volume   875.13538336
_cell_formula_units_Z   8
loop_
 _symmetry_equiv_pos_site_id
 _symmetry_equiv_pos_as_xyz
  1  'x, y, z'
loop_
 _atom_site_type_symbol
 _atom_site_label
 _atom_site_symmetry_multiplicity
 _atom_site_fract_x
 _atom_site_fract_y
 _atom_site_fract_z
 _atom_site_occupancy
  Ta  Ta0  1  0.25107700  0.25582200  0.37447400  1
  Ta  Ta1  1  0.25107700  0.25582200  0.62552600  1
  Ta  Ta2  1  0.25547900  0.24884600  0.87631400  1
  Ta  Ta3  1  0.74892300  0.25582200  0.62552600  1
  Ta  Ta4  1  0.74452100  0.24884600  0.12368600  1
  Ta  Ta5  1  0.25547900  0.24884600  0.12368600  1
  Ta  Ta6  1  0.74892300  0.25582200  0.37447400  1
  Ta  Ta7  1  0.74452100  0.24884600  0.87631400  1
  Ta  Ta8  1  0.25107700  0.74417800  0.62552600  1
  Ta  Ta9  1  0.25547900  0.75115400  0.12368600  1
  Ta  Ta10  1  0.74892300  0.74417800  0.37447400  1
  Ta  Ta11  1  0.74892300  0.74417800  0.62552600  1
  Ta  Ta12  1  0.25107700  0.74417800  0.37447400  1
  Ta  Ta13  1  0.74452100  0.75115400  0.87631400  1
  Ta  Ta14  1  0.74452100  0.75115400  0.12368600  1
  Ta  Ta15  1  0.25547900  0.75115400  0.87631400  1
  Cu  Cu16  1  0.00000000  0.00000000  0.50000000  1
  Cu  Cu17  1  0.50000000  0.00000000  0.25202600  1
  Cu  Cu18  1  0.50000000  0.00000000  0.50000000  1
  Cu  Cu19  1  0.50000000  0.00000000  0.74797400  1
  Cu  Cu20  1  0.00000000  0.00000000  0.00000000  1
  Cu  Cu21  1  0.00000000  0.50000000  0.24878500  1
  Cu  Cu22  1  0.00000000  0.50000000  0.75121500  1
  Cu  Cu23  1  0.00000000  0.50000000  0.00000000  1
  O  O24  1  0.69496900  0.00000000  0.33868900  1
  O  O25  1  0.69496900  0.00000000  0.66131100  1
  O  O26  1  0.69093100  0.00000000  0.84013200  1
  O  O27  1  0.30906900  0.00000000  0.84013200  1
  O  O28  1  0.69093100  0.00000000  0.15986800  1
  O  O29  1  0.00000000  0.18135500  0.59396400  1
  O  O30  1  0.00000000  0.18135500  0.40603600  1
  O  O31  1  0.00000000  0.17802900  0.09628200  1
  O  O32  1  0.00000000  0.17802900  0.90371800  1
  O  O33  1  0.68649400  0.18505500  0.50000000  1
  O  O34  1  0.31350600  0.18505500  0.50000000  1
  O  O35  1  0.70053600  0.20488300  0.00000000  1
  O  O36  1  0.29946400  0.20488300  0.00000000  1
  O  O37  1  0.81931200  0.31016200  0.24939700  1
  O  O38  1  0.81931200  0.31016200  0.75060300  1
  O  O39  1  0.18068800  0.31016200  0.24939700  1
  O  O40  1  0.18068800  0.31016200  0.75060300  1
  O  O41  1  0.50000000  0.29682400  0.35239300  1
  O  O42  1  0.50000000  0.30696400  0.85304200  1
  O  O43  1  0.50000000  0.29682400  0.64760700  1
  O  O44  1  0.50000000  0.30696400  0.14695800  1
  O  O45  1  0.79376300  0.50000000  0.40310600  1
  O  O46  1  0.81531400  0.50000000  0.90677700  1
  O  O47  1  0.79376300  0.50000000  0.59689400  1
  O  O48  1  0.20623700  0.50000000  0.40310600  1
  O  O49  1  0.20623700  0.50000000  0.59689400  1
  O  O50  1  0.81531400  0.50000000  0.09322300  1
  O  O51  1  0.18468600  0.50000000  0.90677700  1
  O  O52  1  0.18468600  0.50000000  0.09322300  1
  O  O53  1  0.50000000  0.70317600  0.35239300  1
  O  O54  1  0.50000000  0.70317600  0.64760700  1
  O  O55  1  0.50000000  0.69303600  0.85304200  1
  O  O56  1  0.50000000  0.69303600  0.14695800  1
  O  O57  1  0.81931200  0.68983800  0.24939700  1
  O  O58  1  0.18068800  0.68983800  0.24939700  1
  O  O59  1  0.81931200  0.68983800  0.75060300  1
  O  O60  1  0.18068800  0.68983800  0.75060300  1
  O  O61  1  0.68649400  0.81494500  0.50000000  1
  O  O62  1  0.31350600  0.81494500  0.50000000  1
  O  O63  1  0.70053600  0.79511700  0.00000000  1
  O  O64  1  0.29946400  0.79511700  0.00000000  1
  O  O65  1  0.00000000  0.81864500  0.40603600  1
  O  O66  1  0.00000000  0.81864500  0.59396400  1
  O  O67  1  0.00000000  0.82197100  0.09628200  1
  O  O68  1  0.00000000  0.82197100  0.90371800  1
  O  O69  1  0.30503100  0.00000000  0.33868900  1
  O  O70  1  0.30503100  0.00000000  0.66131100  1
  O  O71  1  0.30906900  0.00000000  0.15986800  1
