# generated using pymatgen
data_Mg17(As3O16)2
_symmetry_space_group_name_H-M   'P 1'
_cell_length_a   12.18876900
_cell_length_b   9.96081700
_cell_length_c   10.60938001
_cell_angle_alpha   69.24904281
_cell_angle_beta   90.00000000
_cell_angle_gamma   90.00000000
_symmetry_Int_Tables_number   1
_chemical_formula_structural   Mg17(As3O16)2
_chemical_formula_sum   'Mg34 As12 O64'
_cell_volume   1204.52681718
_cell_formula_units_Z   2
loop_
 _symmetry_equiv_pos_site_id
 _symmetry_equiv_pos_as_xyz
  1  'x, y, z'
loop_
 _atom_site_type_symbol
 _atom_site_label
 _atom_site_symmetry_multiplicity
 _atom_site_fract_x
 _atom_site_fract_y
 _atom_site_fract_z
 _atom_site_occupancy
  Mg  Mg0  1  0.50002000  0.74432300  0.24584600  1
  Mg  Mg1  1  0.62063300  0.74513700  0.00530800  1
  Mg  Mg2  1  0.49939900  0.26563400  0.24713100  1
  Mg  Mg3  1  0.50000000  0.00000000  0.50000000  1
  Mg  Mg4  1  0.24168700  0.99885300  0.50167600  1
  Mg  Mg5  1  0.62099600  0.00168500  0.23991700  1
  Mg  Mg6  1  0.50060100  0.73436600  0.75286900  1
  Mg  Mg7  1  0.25172100  0.73450600  0.75619200  1
  Mg  Mg8  1  0.37519400  0.73514500  0.50538700  1
  Mg  Mg9  1  0.37936700  0.25486300  0.99469200  1
  Mg  Mg10  1  0.49998000  0.25567700  0.75415400  1
  Mg  Mg11  1  0.25053000  0.26854900  0.74388400  1
  Mg  Mg12  1  0.25831300  0.99885300  0.00167600  1
  Mg  Mg13  1  0.00000000  0.00000000  0.00000000  1
  Mg  Mg14  1  0.37900400  0.99831500  0.76008300  1
  Mg  Mg15  1  0.24827900  0.73450600  0.25619200  1
  Mg  Mg16  1  0.99939900  0.73436600  0.25286900  1
  Mg  Mg17  1  0.12480600  0.73514500  0.00538700  1
  Mg  Mg18  1  0.12063300  0.25486300  0.49469200  1
  Mg  Mg19  1  0.24947000  0.26854900  0.24388400  1
  Mg  Mg20  1  0.00002000  0.25567700  0.25415400  1
  Mg  Mg21  1  0.87900400  0.00168500  0.73991700  1
  Mg  Mg22  1  0.75831300  0.00114700  0.49832400  1
  Mg  Mg23  1  0.12099600  0.99831500  0.26008300  1
  Mg  Mg24  1  0.99998000  0.74432300  0.74584600  1
  Mg  Mg25  1  0.75053000  0.73145100  0.75611600  1
  Mg  Mg26  1  0.87936700  0.74513700  0.50530800  1
  Mg  Mg27  1  0.87519400  0.26485500  0.99461300  1
  Mg  Mg28  1  0.00060100  0.26563400  0.74713100  1
  Mg  Mg29  1  0.75172100  0.26549400  0.74380800  1
  Mg  Mg30  1  0.74168700  0.00114700  0.99832400  1
  Mg  Mg31  1  0.74947000  0.73145100  0.25611600  1
  Mg  Mg32  1  0.62480600  0.26485500  0.49461300  1
  Mg  Mg33  1  0.74827900  0.26549400  0.24380800  1
  As  As34  1  0.62612500  0.99942300  0.74891100  1
  As  As35  1  0.37387500  0.00057700  0.25108900  1
  As  As36  1  0.37519800  0.42334200  0.44333900  1
  As  As37  1  0.12612500  0.00057700  0.75108900  1
  As  As38  1  0.62480200  0.57665800  0.55666100  1
  As  As39  1  0.12480200  0.42334200  0.94333900  1
  As  As40  1  0.87387500  0.99942300  0.24891100  1
  As  As41  1  0.37471100  0.57777500  0.05702700  1
  As  As42  1  0.87471100  0.42222500  0.44297300  1
  As  As43  1  0.12528900  0.57777500  0.55702700  1
  As  As44  1  0.62528900  0.42222500  0.94297300  1
  As  As45  1  0.87519800  0.57665800  0.05666100  1
  O  O46  1  0.48066000  0.12064200  0.14909600  1
  O  O47  1  0.63239800  0.12102700  0.84424900  1
  O  O48  1  0.37534600  0.61224800  0.37936900  1
  O  O49  1  0.49012900  0.63357900  0.11546600  1
  O  O50  1  0.49071700  0.36712400  0.38388200  1
  O  O51  1  0.62457800  0.36650800  0.11520800  1
  O  O52  1  0.51640900  0.11601500  0.63662200  1
  O  O53  1  0.23489300  0.11586400  0.63947500  1
  O  O54  1  0.62417400  0.13429000  0.37175200  1
  O  O55  1  0.37291300  0.11456700  0.36165000  1
  O  O56  1  0.37582600  0.86571000  0.62824800  1
  O  O57  1  0.48359100  0.88398500  0.36337800  1
  O  O58  1  0.37542200  0.63349200  0.88479200  1
  O  O59  1  0.12465400  0.61224800  0.87936900  1
  O  O60  1  0.50928300  0.63287600  0.61611800  1
  O  O61  1  0.24132700  0.63256300  0.61612900  1
  O  O62  1  0.50987100  0.36642100  0.88453400  1
  O  O63  1  0.24102500  0.36816400  0.88554000  1
  O  O64  1  0.62465400  0.38775200  0.62063100  1
  O  O65  1  0.37735400  0.36814600  0.61515900  1
  O  O66  1  0.26510700  0.11586400  0.13947500  1
  O  O67  1  0.98359100  0.11601500  0.13662200  1
  O  O68  1  0.36713200  0.14219900  0.86362600  1
  O  O69  1  0.12708700  0.11456700  0.86165000  1
  O  O70  1  0.36760200  0.87897300  0.15575100  1
  O  O71  1  0.12417400  0.86571000  0.12824800  1
  O  O72  1  0.51934000  0.87935800  0.85090400  1
  O  O73  1  0.23723900  0.88482300  0.86722200  1
  O  O74  1  0.12457800  0.63349200  0.38479200  1
  O  O75  1  0.87495500  0.61066600  0.38040200  1
  O  O76  1  0.25867300  0.63256300  0.11612900  1
  O  O77  1  0.99071700  0.63287600  0.11611800  1
  O  O78  1  0.25897500  0.36816400  0.38554000  1
  O  O79  1  0.99012900  0.36642100  0.38453400  1
  O  O80  1  0.37495500  0.38933400  0.11959800  1
  O  O81  1  0.12264600  0.36814600  0.11515900  1
  O  O82  1  0.01934000  0.12064200  0.64909600  1
  O  O83  1  0.73723900  0.11517700  0.63277800  1
  O  O84  1  0.13286800  0.14219900  0.36362600  1
  O  O85  1  0.86760200  0.12102700  0.34424900  1
  O  O86  1  0.13239800  0.87897300  0.65575100  1
  O  O87  1  0.86713200  0.85780100  0.63637400  1
  O  O88  1  0.26276100  0.88482300  0.36722200  1
  O  O89  1  0.98066000  0.87935800  0.35090400  1
  O  O90  1  0.87735400  0.63185400  0.88484100  1
  O  O91  1  0.62504500  0.61066600  0.88040200  1
  O  O92  1  0.00987100  0.63357900  0.61546600  1
  O  O93  1  0.74102500  0.63183600  0.61446000  1
  O  O94  1  0.00928300  0.36712400  0.88388200  1
  O  O95  1  0.74132700  0.36743700  0.88387100  1
  O  O96  1  0.12504500  0.38933400  0.61959800  1
  O  O97  1  0.87542200  0.36650800  0.61520800  1
  O  O98  1  0.76276100  0.11517700  0.13277800  1
  O  O99  1  0.87582600  0.13429000  0.87175200  1
  O  O100  1  0.87291300  0.88543300  0.13835000  1
  O  O101  1  0.63286800  0.85780100  0.13637400  1
  O  O102  1  0.01640900  0.88398500  0.86337800  1
  O  O103  1  0.73489300  0.88413600  0.86052500  1
  O  O104  1  0.62264600  0.63185400  0.38484100  1
  O  O105  1  0.75897500  0.63183600  0.11446000  1
  O  O106  1  0.75867300  0.36743700  0.38387100  1
  O  O107  1  0.87534600  0.38775200  0.12063100  1
  O  O108  1  0.62708700  0.88543300  0.63835000  1
  O  O109  1  0.76510700  0.88413600  0.36052500  1
