# generated using pymatgen
data_SrAl22O34
_symmetry_space_group_name_H-M   'P 1'
_cell_length_a   11.30281600
_cell_length_b   9.78526000
_cell_length_c   11.85683217
_cell_angle_alpha   74.12500795
_cell_angle_beta   90.00000000
_cell_angle_gamma   90.00000000
_symmetry_Int_Tables_number   1
_chemical_formula_structural   SrAl22O34
_chemical_formula_sum   'Sr2 Al44 O68'
_cell_volume   1261.36252132
_cell_formula_units_Z   2
loop_
 _symmetry_equiv_pos_site_id
 _symmetry_equiv_pos_as_xyz
  1  'x, y, z'
loop_
 _atom_site_type_symbol
 _atom_site_label
 _atom_site_symmetry_multiplicity
 _atom_site_fract_x
 _atom_site_fract_y
 _atom_site_fract_z
 _atom_site_occupancy
  Sr  Sr0  1  0.25000000  0.69504600  0.48043800  1
  Sr  Sr1  1  0.75000000  0.30495400  0.51956200  1
  Al  Al2  1  0.00000000  0.00000000  0.00000000  1
  Al  Al3  1  0.12446800  0.34312200  0.21625000  1
  Al  Al4  1  0.00034100  0.09572000  0.21623500  1
  Al  Al5  1  0.25000000  0.49983900  0.00161200  1
  Al  Al6  1  0.99998900  0.44971800  0.64997000  1
  Al  Al7  1  0.12471100  0.84729600  0.20777600  1
  Al  Al8  1  0.37528900  0.84729600  0.20777600  1
  Al  Al9  1  0.25000000  0.59689400  0.21070400  1
  Al  Al10  1  0.50000000  0.00000000  0.00000000  1
  Al  Al11  1  0.99904000  0.64978800  0.04962000  1
  Al  Al12  1  0.25000000  0.85108300  0.94732900  1
  Al  Al13  1  0.12332300  0.65457000  0.78916900  1
  Al  Al14  1  0.25000000  0.94808100  0.64757500  1
  Al  Al15  1  0.25000000  0.04802000  0.35278800  1
  Al  Al16  1  0.37553200  0.34312200  0.21625000  1
  Al  Al17  1  0.62332300  0.34543000  0.21083100  1
  Al  Al18  1  0.49965900  0.09572000  0.21623500  1
  Al  Al19  1  0.75000000  0.50016100  0.99838800  1
  Al  Al20  1  0.25000000  0.15075900  0.04935100  1
  Al  Al21  1  0.49904000  0.35021200  0.95038000  1
  Al  Al22  1  0.25000000  0.40177800  0.78838700  1
  Al  Al23  1  0.12650200  0.15483400  0.78309900  1
  Al  Al24  1  0.37349800  0.15483400  0.78309900  1
  Al  Al25  1  0.50001100  0.44971800  0.64997000  1
  Al  Al26  1  0.49998900  0.55028200  0.35003000  1
  Al  Al27  1  0.87349800  0.84516600  0.21690100  1
  Al  Al28  1  0.62650200  0.84516600  0.21690100  1
  Al  Al29  1  0.75000000  0.59822200  0.21161300  1
  Al  Al30  1  0.50096000  0.64978800  0.04962000  1
  Al  Al31  1  0.75000000  0.84924100  0.95064900  1
  Al  Al32  1  0.50034100  0.90428000  0.78376500  1
  Al  Al33  1  0.37667700  0.65457000  0.78916900  1
  Al  Al34  1  0.62446800  0.65687800  0.78375000  1
  Al  Al35  1  0.75000000  0.95198000  0.64721200  1
  Al  Al36  1  0.75000000  0.05191900  0.35242500  1
  Al  Al37  1  0.87667700  0.34543000  0.21083100  1
  Al  Al38  1  0.75000000  0.14891700  0.05267100  1
  Al  Al39  1  0.00096000  0.35021200  0.95038000  1
  Al  Al40  1  0.75000000  0.40310600  0.78929600  1
  Al  Al41  1  0.87528900  0.15270400  0.79222400  1
  Al  Al42  1  0.62471100  0.15270400  0.79222400  1
  Al  Al43  1  0.00001100  0.55028200  0.35003000  1
  Al  Al44  1  0.99965900  0.90428000  0.78376500  1
  Al  Al45  1  0.87553200  0.65687800  0.78375000  1
  O  O46  1  0.99838000  0.09508400  0.71739000  1
  O  O47  1  0.13330900  0.45588800  0.90076800  1
  O  O48  1  0.99818400  0.19079900  0.90077500  1
  O  O49  1  0.25000000  0.59577300  0.71258200  1
  O  O50  1  0.12552700  0.34640900  0.71224200  1
  O  O51  1  0.00000000  0.50000000  0.50000000  1
  O  O52  1  0.13007000  0.65592900  0.29588800  1
  O  O53  1  0.99915300  0.40359600  0.28823500  1
  O  O54  1  0.25000000  0.79586500  0.10936800  1
  O  O55  1  0.13226800  0.54768100  0.09995200  1
  O  O56  1  0.11746800  0.95557600  0.90005800  1
  O  O57  1  0.38253200  0.95557600  0.90005800  1
  O  O58  1  0.25000000  0.68865300  0.90039400  1
  O  O59  1  0.99860800  0.70326300  0.88956700  1
  O  O60  1  0.50162000  0.09508400  0.71739000  1
  O  O61  1  0.25000000  0.09754100  0.70653600  1
  O  O62  1  0.12449000  0.84403300  0.71239800  1
  O  O63  1  0.37551000  0.84403300  0.71239800  1
  O  O64  1  0.25000000  0.95423900  0.49982500  1
  O  O65  1  0.37469200  0.15296900  0.29074600  1
  O  O66  1  0.12530800  0.15296900  0.29074600  1
  O  O67  1  0.25000000  0.89786700  0.28974100  1
  O  O68  1  0.49860800  0.29673700  0.11043300  1
  O  O69  1  0.25000000  0.31052300  0.09916900  1
  O  O70  1  0.11853400  0.04481400  0.09883200  1
  O  O71  1  0.38146600  0.04481400  0.09883200  1
  O  O72  1  0.36669100  0.45588800  0.90076800  1
  O  O73  1  0.63226800  0.45231900  0.90004800  1
  O  O74  1  0.50181600  0.19079900  0.90077500  1
  O  O75  1  0.25000000  0.20313700  0.88875800  1
  O  O76  1  0.75000000  0.59250300  0.71745200  1
  O  O77  1  0.49915300  0.59640400  0.71176500  1
  O  O78  1  0.37447300  0.34640900  0.71224200  1
  O  O79  1  0.63007000  0.34407100  0.70411200  1
  O  O80  1  0.50000000  0.50000000  0.50000000  1
  O  O81  1  0.36993000  0.65592900  0.29588800  1
  O  O82  1  0.62552700  0.65359100  0.28775800  1
  O  O83  1  0.50084700  0.40359600  0.28823500  1
  O  O84  1  0.25000000  0.40749700  0.28254800  1
  O  O85  1  0.75000000  0.79686300  0.11124200  1
  O  O86  1  0.49818400  0.80920100  0.09922500  1
  O  O87  1  0.36773200  0.54768100  0.09995200  1
  O  O88  1  0.63330900  0.54411200  0.09923200  1
  O  O89  1  0.61853400  0.95518600  0.90116800  1
  O  O90  1  0.88146600  0.95518600  0.90116800  1
  O  O91  1  0.75000000  0.68947700  0.90083100  1
  O  O92  1  0.50139200  0.70326300  0.88956700  1
  O  O93  1  0.75000000  0.10213300  0.71025900  1
  O  O94  1  0.87469200  0.84703100  0.70925400  1
  O  O95  1  0.62530800  0.84703100  0.70925400  1
  O  O96  1  0.75000000  0.04576100  0.50017500  1
  O  O97  1  0.62449000  0.15596700  0.28760200  1
  O  O98  1  0.87551000  0.15596700  0.28760200  1
  O  O99  1  0.75000000  0.90245900  0.29346400  1
  O  O100  1  0.49838000  0.90491600  0.28261000  1
  O  O101  1  0.00139200  0.29673700  0.11043300  1
  O  O102  1  0.75000000  0.31134700  0.09960600  1
  O  O103  1  0.88253200  0.04442400  0.09994200  1
  O  O104  1  0.61746800  0.04442400  0.09994200  1
  O  O105  1  0.86773200  0.45231900  0.90004800  1
  O  O106  1  0.75000000  0.20413500  0.89063200  1
  O  O107  1  0.00084700  0.59640400  0.71176500  1
  O  O108  1  0.86993000  0.34407100  0.70411200  1
  O  O109  1  0.87447300  0.65359100  0.28775800  1
  O  O110  1  0.75000000  0.40422700  0.28741800  1
  O  O111  1  0.00181600  0.80920100  0.09922500  1
  O  O112  1  0.86669100  0.54411200  0.09923200  1
  O  O113  1  0.00162000  0.90491600  0.28261000  1
