# generated using pymatgen
data_Hf3Sc4O12
_symmetry_space_group_name_H-M   'P 1'
_cell_length_a   6.17782300
_cell_length_b   6.19325178
_cell_length_c   18.15184033
_cell_angle_alpha   96.70503256
_cell_angle_beta   96.81762719
_cell_angle_gamma   99.64895472
_symmetry_Int_Tables_number   1
_chemical_formula_structural   Hf3Sc4O12
_chemical_formula_sum   'Hf9 Sc12 O36'
_cell_volume   673.18052545
_cell_formula_units_Z   3
loop_
 _symmetry_equiv_pos_site_id
 _symmetry_equiv_pos_as_xyz
  1  'x, y, z'
loop_
 _atom_site_type_symbol
 _atom_site_label
 _atom_site_symmetry_multiplicity
 _atom_site_fract_x
 _atom_site_fract_y
 _atom_site_fract_z
 _atom_site_occupancy
  Hf  Hf0  1  0.33483400  0.33676300  0.33158400  1
  Hf  Hf1  1  0.66919200  0.67024100  0.66509600  1
  Hf  Hf2  1  0.50748500  0.03826100  0.89712800  1
  Hf  Hf3  1  0.06313900  0.88836100  0.20301900  1
  Hf  Hf4  1  0.39425700  0.22064700  0.53789200  1
  Hf  Hf5  1  0.49260700  0.97172500  0.10218700  1
  Hf  Hf6  1  0.82511200  0.29914100  0.43550500  1
  Hf  Hf7  1  0.25109300  0.56205400  0.95568300  1
  Hf  Hf8  1  0.15872300  0.62926500  0.76914800  1
  Sc  Sc9  1  0.83418100  0.37018600  0.22704600  1
  Sc  Sc10  1  0.73558900  0.44236400  0.04564500  1
  Sc  Sc11  1  0.16564400  0.70058200  0.55933800  1
  Sc  Sc12  1  0.27010300  0.44850900  0.13144100  1
  Sc  Sc13  1  0.06515600  0.77331600  0.38035700  1
  Sc  Sc14  1  0.99416100  0.99786800  0.99917400  1
  Sc  Sc15  1  0.60326600  0.78639600  0.46405900  1
  Sc  Sc16  1  0.40051600  0.10623800  0.71436300  1
  Sc  Sc17  1  0.93325300  0.11044400  0.79745400  1
  Sc  Sc18  1  0.60662200  0.89284700  0.28822100  1
  Sc  Sc19  1  0.94154000  0.22656000  0.62175200  1
  Sc  Sc20  1  0.72728200  0.55604900  0.86897900  1
  O  O21  1  0.69884300  0.09253500  0.02559000  1
  O  O22  1  0.16373700  0.31033500  0.22523700  1
  O  O23  1  0.05175100  0.42347800  0.36735900  1
  O  O24  1  0.55900900  0.31791900  0.14026000  1
  O  O25  1  0.49641300  0.64085400  0.55852000  1
  O  O26  1  0.38824800  0.75668400  0.70327800  1
  O  O27  1  0.11681200  0.33943800  0.02126000  1
  O  O28  1  0.96215200  0.57195000  0.14076300  1
  O  O29  1  0.88671000  0.64659200  0.47402800  1
  O  O30  1  0.82193800  0.97780100  0.89195600  1
  O  O31  1  0.85593600  0.69775800  0.27253200  1
  O  O32  1  0.45112900  0.67247800  0.35266800  1
  O  O33  1  0.29461600  0.90328300  0.47450300  1
  O  O34  1  0.22575200  0.98240300  0.81128900  1
  O  O35  1  0.48647700  0.64736900  0.05851600  1
  O  O36  1  0.19042800  0.02817000  0.60625900  1
  O  O37  1  0.78200200  0.00660100  0.68547800  1
  O  O38  1  0.62431100  0.22621000  0.81006700  1
  O  O39  1  0.37404000  0.77994100  0.19249100  1
  O  O40  1  0.21922500  0.99411200  0.31203500  1
  O  O41  1  0.82155000  0.97643600  0.39481000  1
  O  O42  1  0.49906900  0.36071100  0.94039900  1
  O  O43  1  0.77109000  0.01056900  0.18689100  1
  O  O44  1  0.70469800  0.11539300  0.52652800  1
  O  O45  1  0.55107200  0.32854100  0.64678500  1
  O  O46  1  0.15609600  0.30767800  0.72784700  1
  O  O47  1  0.16721700  0.00727300  0.10689200  1
  O  O48  1  0.10257500  0.34124800  0.52204000  1
  O  O49  1  0.04165900  0.43772100  0.85807600  1
  O  O50  1  0.90483400  0.64709600  0.97688200  1
  O  O51  1  0.63464700  0.24686700  0.30743000  1
  O  O52  1  0.49347900  0.33336300  0.43927300  1
  O  O53  1  0.43003700  0.68128100  0.86059700  1
  O  O54  1  0.96896700  0.57973800  0.64099700  1
  O  O55  1  0.83462900  0.67436600  0.77278500  1
  O  O56  1  0.29509900  0.90798700  0.97261000  1
