# generated using pymatgen
data_Sr8Ga16S31
_symmetry_space_group_name_H-M   'P 1'
_cell_length_a   11.98422400
_cell_length_b   12.08139114
_cell_length_c   12.25468012
_cell_angle_alpha   104.94459771
_cell_angle_beta   104.64359179
_cell_angle_gamma   118.67668392
_symmetry_Int_Tables_number   1
_chemical_formula_structural   Sr8Ga16S31
_chemical_formula_sum   'Sr8 Ga16 S31'
_cell_volume   1347.47317743
_cell_formula_units_Z   1
loop_
 _symmetry_equiv_pos_site_id
 _symmetry_equiv_pos_as_xyz
  1  'x, y, z'
loop_
 _atom_site_type_symbol
 _atom_site_label
 _atom_site_symmetry_multiplicity
 _atom_site_fract_x
 _atom_site_fract_y
 _atom_site_fract_z
 _atom_site_occupancy
  Sr  Sr0  1  0.12607800  0.87557100  0.24831100  1
  Sr  Sr1  1  0.62528300  0.87759300  0.24627200  1
  Sr  Sr2  1  0.37514500  0.61656200  0.74908400  1
  Sr  Sr3  1  0.12181300  0.37273800  0.24965100  1
  Sr  Sr4  1  0.87725300  0.62629600  0.75023100  1
  Sr  Sr5  1  0.62276700  0.37052300  0.24878500  1
  Sr  Sr6  1  0.37576200  0.13285200  0.75108700  1
  Sr  Sr7  1  0.87344000  0.12457000  0.75229200  1
  Ga  Ga8  1  0.37807000  0.96915900  0.99543400  1
  Ga  Ga9  1  0.38935800  0.86218000  0.49994900  1
  Ga  Ga10  1  0.13618400  0.61257900  0.99939400  1
  Ga  Ga11  1  0.03302500  0.64083700  0.50161800  1
  Ga  Ga12  1  0.85881400  0.89111200  0.99795600  1
  Ga  Ga13  1  0.88914900  0.86274800  0.50023500  1
  Ga  Ga14  1  0.53199800  0.63941300  0.49951500  1
  Ga  Ga15  1  0.64024400  0.53270400  0.00007100  1
  Ga  Ga16  1  0.36005000  0.46811400  0.00143700  1
  Ga  Ga17  1  0.46870500  0.36147500  0.50078900  1
  Ga  Ga18  1  0.10899000  0.13577600  0.49896300  1
  Ga  Ga19  1  0.13747200  0.10680800  0.99764600  1
  Ga  Ga20  1  0.96904200  0.36234300  0.50179100  1
  Ga  Ga21  1  0.86176100  0.38521600  0.99804700  1
  Ga  Ga22  1  0.61037700  0.13717100  0.50160200  1
  Ga  Ga23  1  0.61021300  0.02358700  0.99012900  1
  S  S24  1  0.16525800  0.81535300  0.99588500  1
  S  S25  1  0.41833800  0.91800100  0.33819200  1
  S  S26  1  0.19071100  0.84675700  0.50609200  1
  S  S27  1  0.08048100  0.58085900  0.16212800  1
  S  S28  1  0.68637300  0.84294800  0.49830100  1
  S  S29  1  0.91838000  0.91770700  0.33624600  1
  S  S30  1  0.34976600  0.65989000  0.50320600  1
  S  S31  1  0.08803400  0.58600800  0.66675500  1
  S  S32  1  0.84312800  0.69122000  0.99896300  1
  S  S33  1  0.65021500  0.84919800  0.99219100  1
  S  S34  1  0.91727100  0.91777300  0.83508200  1
  S  S35  1  0.58299800  0.58252100  0.16404900  1
  S  S36  1  0.34003800  0.64874800  0.99867700  1
  S  S37  1  0.58326500  0.58330200  0.66396700  1
  S  S38  1  0.15037300  0.33985500  0.49947700  1
  S  S39  1  0.84873000  0.65892800  0.50013900  1
  S  S40  1  0.41690300  0.41693100  0.33633600  1
  S  S41  1  0.65812600  0.35001500  0.99868700  1
  S  S42  1  0.41623500  0.41699900  0.83572100  1
  S  S43  1  0.07997100  0.08026900  0.16144900  1
  S  S44  1  0.34128500  0.14420500  0.99344800  1
  S  S45  1  0.15627100  0.30924100  0.00134800  1
  S  S46  1  0.91990000  0.42098500  0.33844500  1
  S  S47  1  0.65192000  0.34163000  0.50279500  1
  S  S48  1  0.08064600  0.08166200  0.66300000  1
  S  S49  1  0.31270000  0.15732000  0.50048600  1
  S  S50  1  0.58885900  0.09010800  0.18163600  1
  S  S51  1  0.91805300  0.41796300  0.83625900  1
  S  S52  1  0.81401600  0.15865700  0.50320600  1
  S  S53  1  0.57983100  0.08040500  0.66541100  1
  S  S54  1  0.82863400  0.17991800  0.99713300  1
