# generated using pymatgen
data_Na2Al17Si11B7(H3O31)2
_symmetry_space_group_name_H-M   'P 1'
_cell_length_a   9.48462200
_cell_length_b   9.48934624
_cell_length_c   13.27223718
_cell_angle_alpha   98.59834035
_cell_angle_beta   98.76401364
_cell_angle_gamma   114.40693545
_symmetry_Int_Tables_number   1
_chemical_formula_structural   Na2Al17Si11B7(H3O31)2
_chemical_formula_sum   'Na2 Al17 Si11 B7 H6 O62'
_cell_volume   1044.69996040
_cell_formula_units_Z   1
loop_
 _symmetry_equiv_pos_site_id
 _symmetry_equiv_pos_as_xyz
  1  'x, y, z'
loop_
 _atom_site_type_symbol
 _atom_site_label
 _atom_site_symmetry_multiplicity
 _atom_site_fract_x
 _atom_site_fract_y
 _atom_site_fract_z
 _atom_site_occupancy
  Na  Na0  1  0.39716600  0.39689000  0.39690500  1
  Na  Na1  1  0.86430400  0.85759100  0.85689300  1
  Al  Al2  1  0.86649200  0.43104300  0.19262900  1
  Al  Al3  1  0.36523400  0.59104500  0.02962200  1
  Al  Al4  1  0.01366500  0.19547000  0.19391300  1
  Al  Al5  1  0.28727000  0.28484900  0.10339600  1
  Al  Al6  1  0.59850100  0.37548800  0.03081800  1
  Al  Al7  1  0.75422300  0.08607800  0.31086300  1
  Al  Al8  1  0.35902300  0.91996700  0.69789800  1
  Al  Al9  1  0.86649100  0.08049800  0.53584200  1
  Al  Al10  1  0.18371500  0.00320100  0.18872100  1
  Al  Al11  1  0.51920700  0.68912200  0.67936500  1
  Al  Al12  1  0.07928700  0.86488300  0.53408600  1
  Al  Al13  1  0.25325200  0.58810500  0.80828800  1
  Al  Al14  1  0.42510500  0.86705800  0.19559400  1
  Al  Al15  1  0.07883800  0.75247500  0.30629000  1
  Al  Al16  1  0.68860300  0.51861100  0.68036500  1
  Al  Al17  1  0.58643900  0.25292700  0.80842500  1
  Al  Al18  1  0.91983100  0.36003800  0.69856100  1
  Si  Si19  1  0.70781800  0.88254500  0.07886500  1
  Si  Si20  1  0.77335800  0.58583100  0.39054500  1
  Si  Si21  1  0.67013000  0.29040700  0.48218900  1
  Si  Si22  1  0.19610400  0.39093200  0.57842300  1
  Si  Si23  1  0.26684500  0.07841600  0.88990800  1
  Si  Si24  1  0.38893000  0.19656300  0.57854800  1
  Si  Si25  1  0.16042200  0.78260200  0.98701300  1
  Si  Si26  1  0.58585800  0.77502100  0.39050500  1
  Si  Si27  1  0.28919600  0.67236200  0.48136500  1
  Si  Si28  1  0.08179500  0.26744300  0.88795800  1
  Si  Si29  1  0.78977500  0.16927400  0.98492400  1
  B  B30  1  0.20413500  0.53313100  0.20181600  1
  B  B31  1  0.89277500  0.69586900  0.08071900  1
  B  B32  1  0.69552300  0.02448600  0.70510900  1
  B  B33  1  0.53247400  0.20371200  0.19939000  1
  B  B34  1  0.03641700  0.03735700  0.36445800  1
  B  B35  1  0.02381200  0.69516100  0.70421400  1
  B  B36  1  0.53849700  0.53860700  0.86387800  1
  H  H37  1  0.98725600  0.36220800  0.35889400  1
  H  H38  1  0.55224800  0.55271400  0.17282700  1
  H  H39  1  0.47851900  0.86201400  0.85915700  1
  H  H40  1  0.03013700  0.02810800  0.66678900  1
  H  H41  1  0.35565600  0.98722700  0.35825300  1
  H  H42  1  0.85946800  0.48031000  0.86070400  1
  O  O43  1  0.27467400  0.89837200  0.10151800  1
  O  O44  1  0.01071400  0.80406400  0.17977000  1
  O  O45  1  0.52183700  0.80194300  0.08806900  1
  O  O46  1  0.87350800  0.58586400  0.29997200  1
  O  O47  1  0.31040500  0.64140400  0.15861500  1
  O  O48  1  0.08866700  0.56670800  0.23448200  1
  O  O49  1  0.77018400  0.75217200  0.04714100  1
  O  O50  1  0.67189000  0.39896700  0.39684900  1
  O  O51  1  0.76862700  0.39254100  0.60128500  1
  O  O52  1  0.51645800  0.31161100  0.68779800  1
  O  O53  1  0.19549600  0.48034000  0.47988300  1
  O  O54  1  0.62875300  0.62997300  0.34189800  1
  O  O55  1  0.48566500  0.48640600  0.10312800  1
  O  O56  1  0.91436100  0.29449600  0.29122400  1
  O  O57  1  0.20848800  0.38894900  0.20578700  1
  O  O58  1  0.80946500  0.52949500  0.08993100  1
  O  O59  1  0.73623500  0.16610500  0.44252100  1
  O  O60  1  0.37363700  0.09068400  0.80467700  1
  O  O61  1  0.01354100  0.30295000  0.58932400  1
  O  O62  1  0.81244500  0.13498900  0.66646300  1
  O  O63  1  0.57852800  0.06768800  0.73081200  1
  O  O64  1  0.10255900  0.10468500  0.10141700  1
  O  O65  1  0.17734700  0.89648300  0.90318100  1
  O  O66  1  0.25915800  0.26049200  0.53763400  1
  O  O67  1  0.64165600  0.31175700  0.15740000  1
  O  O68  1  0.92231300  0.07216900  0.39855200  1
  O  O69  1  0.11643300  0.11572700  0.29396300  1
  O  O70  1  0.38782300  0.20577600  0.20390100  1
  O  O71  1  0.47816700  0.19596800  0.48012500  1
  O  O72  1  0.70918200  0.97808000  0.98303300  1
  O  O73  1  0.11699400  0.11620400  0.84569300  1
  O  O74  1  0.69628300  0.89106900  0.49811100  1
  O  O75  1  0.89938500  0.27431800  0.10198800  1
  O  O76  1  0.39484100  0.79646400  0.79581400  1
  O  O77  1  0.01389900  0.01341100  0.59098900  1
  O  O78  1  0.68956700  0.88496500  0.72039000  1
  O  O79  1  0.56813300  0.08821300  0.23179400  1
  O  O80  1  0.06724800  0.92008300  0.39642700  1
  O  O81  1  0.22837200  0.65642100  0.94714900  1
  O  O82  1  0.30164200  0.01391900  0.58906200  1
  O  O83  1  0.29140600  0.91333800  0.29019600  1
  O  O84  1  0.88911800  0.69584200  0.49834500  1
  O  O85  1  0.81596300  0.01815000  0.18769400  1
  O  O86  1  0.56164000  0.56149400  0.58948200  1
  O  O87  1  0.13416400  0.81153900  0.66533800  1
  O  O88  1  0.42288900  0.57234600  0.89991900  1
  O  O89  1  0.61332900  0.61351700  0.79285700  1
  O  O90  1  0.88429800  0.68917300  0.71932600  1
  O  O91  1  0.16438400  0.73794800  0.44131300  1
  O  O92  1  0.58693400  0.87564400  0.29929600  1
  O  O93  1  0.97480900  0.69764600  0.99104900  1
  O  O94  1  0.20663600  0.37464900  0.00075800  1
  O  O95  1  0.39285500  0.77017400  0.60051500  1
  O  O96  1  0.39858200  0.67485100  0.39642800  1
  O  O97  1  0.06716700  0.57854800  0.73050800  1
  O  O98  1  0.56901000  0.42083200  0.89862400  1
  O  O99  1  0.79583300  0.39689900  0.79640300  1
  O  O100  1  0.31216600  0.51866000  0.68743900  1
  O  O101  1  0.37618900  0.20711700  0.00075500  1
  O  O102  1  0.09485300  0.37473300  0.80323000  1
  O  O103  1  0.65786000  0.23020200  0.94757500  1
  O  O104  1  0.89940600  0.18499200  0.90033700  1
