# generated using pymatgen
data_Fe3P3O11
_symmetry_space_group_name_H-M   'P 1'
_cell_length_a   9.73721600
_cell_length_b   9.73299900
_cell_length_c   10.55401130
_cell_angle_alpha   60.03369865
_cell_angle_beta   90.00000000
_cell_angle_gamma   90.00000000
_symmetry_Int_Tables_number   1
_chemical_formula_structural   Fe3P3O11
_chemical_formula_sum   'Fe12 P12 O44'
_cell_volume   866.51691037
_cell_formula_units_Z   4
loop_
 _symmetry_equiv_pos_site_id
 _symmetry_equiv_pos_as_xyz
  1  'x, y, z'
loop_
 _atom_site_type_symbol
 _atom_site_label
 _atom_site_symmetry_multiplicity
 _atom_site_fract_x
 _atom_site_fract_y
 _atom_site_fract_z
 _atom_site_occupancy
  Fe  Fe0  1  0.87601700  0.72829900  0.63275600  1
  Fe  Fe1  1  0.63710200  0.11166200  0.37729600  1
  Fe  Fe2  1  0.37073100  0.08127900  0.23278300  1
  Fe  Fe3  1  0.37601700  0.27170100  0.86724400  1
  Fe  Fe4  1  0.87073100  0.91872100  0.26721700  1
  Fe  Fe5  1  0.86289800  0.11166200  0.87729600  1
  Fe  Fe6  1  0.13710200  0.88833800  0.12270400  1
  Fe  Fe7  1  0.12926900  0.08127900  0.73278300  1
  Fe  Fe8  1  0.62398300  0.72829900  0.13275600  1
  Fe  Fe9  1  0.62926900  0.91872100  0.76721700  1
  Fe  Fe10  1  0.36289800  0.88833800  0.62270400  1
  Fe  Fe11  1  0.12398300  0.27170100  0.36724400  1
  P  P12  1  0.57126300  0.59390500  0.74183300  1
  P  P13  1  0.08529600  0.23623600  0.07153200  1
  P  P14  1  0.07126300  0.40609500  0.75816700  1
  P  P15  1  0.16141000  0.89420000  0.43832800  1
  P  P16  1  0.66141000  0.10580000  0.06167200  1
  P  P17  1  0.41470400  0.23623600  0.57153200  1
  P  P18  1  0.58529600  0.76376400  0.42846800  1
  P  P19  1  0.33859000  0.89420000  0.93832800  1
  P  P20  1  0.83859000  0.10580000  0.56167200  1
  P  P21  1  0.92873700  0.59390500  0.24183300  1
  P  P22  1  0.91470400  0.76376400  0.92846800  1
  P  P23  1  0.42873700  0.40609500  0.25816700  1
  O  O24  1  0.52272200  0.74268800  0.74707600  1
  O  O25  1  0.22507800  0.76774000  0.58114700  1
  O  O26  1  0.72753100  0.58499000  0.75285500  1
  O  O27  1  0.52901100  0.62172900  0.58025600  1
  O  O28  1  0.04158000  0.26465500  0.19444700  1
  O  O29  1  0.49251700  0.44676500  0.84765100  1
  O  O30  1  0.99251700  0.55323500  0.65234900  1
  O  O31  1  0.02901100  0.37827100  0.91974400  1
  O  O32  1  0.21395400  0.05943000  0.41810600  1
  O  O33  1  0.22753100  0.41501000  0.74714500  1
  O  O34  1  0.24299500  0.23211800  0.05379200  1
  O  O35  1  0.72392300  0.10172500  0.19977200  1
  O  O36  1  0.72507800  0.23226000  0.91885300  1
  O  O37  1  0.50215900  0.12068100  0.05684100  1
  O  O38  1  0.51470100  0.91670000  0.41359400  1
  O  O39  1  0.01470100  0.08330000  0.08640600  1
  O  O40  1  0.00215900  0.87931900  0.44315900  1
  O  O41  1  0.02272200  0.25731200  0.75292400  1
  O  O42  1  0.45842000  0.26465500  0.69444700  1
  O  O43  1  0.22392300  0.89827500  0.30022800  1
  O  O44  1  0.28604600  0.05943000  0.91810600  1
  O  O45  1  0.74299500  0.76788200  0.44620800  1
  O  O46  1  0.25700500  0.23211800  0.55379200  1
  O  O47  1  0.71395400  0.94057000  0.08189400  1
  O  O48  1  0.77607700  0.10172500  0.69977200  1
  O  O49  1  0.54158000  0.73534500  0.30555300  1
  O  O50  1  0.97727800  0.74268800  0.24707600  1
  O  O51  1  0.99784100  0.12068100  0.55684100  1
  O  O52  1  0.98529900  0.91670000  0.91359400  1
  O  O53  1  0.48529900  0.08330000  0.58640600  1
  O  O54  1  0.49784100  0.87931900  0.94315900  1
  O  O55  1  0.27492200  0.76774000  0.08114700  1
  O  O56  1  0.27607700  0.89827500  0.80022800  1
  O  O57  1  0.75700500  0.76788200  0.94620800  1
  O  O58  1  0.77246900  0.58499000  0.25285500  1
  O  O59  1  0.78604600  0.94057000  0.58189400  1
  O  O60  1  0.97098900  0.62172900  0.08025600  1
  O  O61  1  0.00748300  0.44676500  0.34765100  1
  O  O62  1  0.50748300  0.55323500  0.15234900  1
  O  O63  1  0.95842000  0.73534500  0.80555300  1
  O  O64  1  0.47098900  0.37827100  0.41974400  1
  O  O65  1  0.27246900  0.41501000  0.24714500  1
  O  O66  1  0.77492200  0.23226000  0.41885300  1
  O  O67  1  0.47727800  0.25731200  0.25292400  1
