# generated using pymatgen
data_CoPO4
_symmetry_space_group_name_H-M   'P 1'
_cell_length_a   10.35453500
_cell_length_b   5.33620600
_cell_length_c   8.73036370
_cell_angle_alpha   54.36152470
_cell_angle_beta   90.00000000
_cell_angle_gamma   90.00000000
_symmetry_Int_Tables_number   1
_chemical_formula_structural   CoPO4
_chemical_formula_sum   'Co4 P4 O16'
_cell_volume   392.04051482
_cell_formula_units_Z   4
loop_
 _symmetry_equiv_pos_site_id
 _symmetry_equiv_pos_as_xyz
  1  'x, y, z'
loop_
 _atom_site_type_symbol
 _atom_site_label
 _atom_site_symmetry_multiplicity
 _atom_site_fract_x
 _atom_site_fract_y
 _atom_site_fract_z
 _atom_site_occupancy
  Co  Co0  1  0.82942000  0.17346300  0.52635200  1
  Co  Co1  1  0.67058000  0.17346300  0.02635200  1
  Co  Co2  1  0.32942000  0.82653700  0.97364800  1
  Co  Co3  1  0.17058000  0.82653700  0.47364800  1
  P  P4  1  0.09815200  0.10370800  0.70251200  1
  P  P5  1  0.59815200  0.89629200  0.79748800  1
  P  P6  1  0.90184800  0.89629200  0.29748800  1
  P  P7  1  0.40184800  0.10370800  0.20251200  1
  O  O8  1  0.34815000  0.09909300  0.03768700  1
  O  O9  1  0.95006400  0.05304200  0.71857300  1
  O  O10  1  0.15973000  0.85009600  0.89381400  1
  O  O11  1  0.13012900  0.42097000  0.66209800  1
  O  O12  1  0.54993600  0.05304200  0.21857300  1
  O  O13  1  0.63012900  0.57903000  0.83790200  1
  O  O14  1  0.86987100  0.57903000  0.33790200  1
  O  O15  1  0.34027000  0.85009600  0.39381400  1
  O  O16  1  0.15185000  0.09909300  0.53768700  1
  O  O17  1  0.84027000  0.14990400  0.10618600  1
  O  O18  1  0.65185000  0.90090700  0.96231300  1
  O  O19  1  0.04993600  0.94695800  0.28142700  1
  O  O20  1  0.36987100  0.42097000  0.16209800  1
  O  O21  1  0.84815000  0.90090700  0.46231300  1
  O  O22  1  0.45006400  0.94695800  0.78142700  1
  O  O23  1  0.65973000  0.14990400  0.60618600  1
