# generated using pymatgen
data_Mo2(PO4)3
_symmetry_space_group_name_H-M   'P 1'
_cell_length_a   8.85855300
_cell_length_b   8.71900600
_cell_length_c   15.00265350
_cell_angle_alpha   54.59075886
_cell_angle_beta   90.00000000
_cell_angle_gamma   90.00000000
_symmetry_Int_Tables_number   1
_chemical_formula_structural   Mo2(PO4)3
_chemical_formula_sum   'Mo8 P12 O48'
_cell_volume   944.43866364
_cell_formula_units_Z   4
loop_
 _symmetry_equiv_pos_site_id
 _symmetry_equiv_pos_as_xyz
  1  'x, y, z'
loop_
 _atom_site_type_symbol
 _atom_site_label
 _atom_site_symmetry_multiplicity
 _atom_site_fract_x
 _atom_site_fract_y
 _atom_site_fract_z
 _atom_site_occupancy
  Mo  Mo0  1  0.46609600  0.63064100  0.61879300  1
  Mo  Mo1  1  0.96609600  0.36935900  0.88120700  1
  Mo  Mo2  1  0.03606100  0.86806300  0.38110100  1
  Mo  Mo3  1  0.53606100  0.13193700  0.11889900  1
  Mo  Mo4  1  0.46393900  0.86806300  0.88110100  1
  Mo  Mo5  1  0.96393900  0.13193700  0.61889900  1
  Mo  Mo6  1  0.03390400  0.63064100  0.11879300  1
  Mo  Mo7  1  0.53390400  0.36935900  0.38120700  1
  P  P8  1  0.75073200  0.53762100  0.49536500  1
  P  P9  1  0.61126300  0.25248600  0.85464000  1
  P  P10  1  0.88979100  0.96487000  0.14433200  1
  P  P11  1  0.38979100  0.03513000  0.35566800  1
  P  P12  1  0.11126300  0.74751400  0.64536000  1
  P  P13  1  0.25073200  0.46237900  0.00463500  1
  P  P14  1  0.74926800  0.53762100  0.99536500  1
  P  P15  1  0.88873700  0.25248600  0.35464000  1
  P  P16  1  0.61020900  0.96487000  0.64433200  1
  P  P17  1  0.11020900  0.03513000  0.85566800  1
  P  P18  1  0.38873700  0.74751400  0.14536000  1
  P  P19  1  0.24926800  0.46237900  0.50463500  1
  O  O20  1  0.10825600  0.19653900  0.86961100  1
  O  O21  1  0.32215600  0.48037800  0.59125900  1
  O  O22  1  0.42994200  0.90676500  0.16073200  1
  O  O23  1  0.13852100  0.63432900  0.43433300  1
  O  O24  1  0.64339600  0.52886200  0.57627100  1
  O  O25  1  0.77855100  0.29252300  0.83004800  1
  O  O26  1  0.57118600  0.17702100  0.97280100  1
  O  O27  1  0.00380600  0.92148800  0.23491600  1
  O  O28  1  0.72911900  0.98328700  0.17834100  1
  O  O29  1  0.84413600  0.71963600  0.43461500  1
  O  O30  1  0.50755800  0.42150100  0.77693300  1
  O  O31  1  0.93752500  0.15268700  0.03986400  1
  O  O32  1  0.43752500  0.84731300  0.46013600  1
  O  O33  1  0.00755800  0.57849900  0.72306700  1
  O  O34  1  0.34413600  0.28036400  0.06538500  1
  O  O35  1  0.22911900  0.01671300  0.32165900  1
  O  O36  1  0.50380600  0.07851200  0.26508400  1
  O  O37  1  0.07118600  0.82297900  0.52719900  1
  O  O38  1  0.27855100  0.70747700  0.66995200  1
  O  O39  1  0.14339600  0.47113800  0.92372900  1
  O  O40  1  0.63852100  0.36567100  0.06566700  1
  O  O41  1  0.82215600  0.51962200  0.90874100  1
  O  O42  1  0.92994200  0.09323500  0.33926800  1
  O  O43  1  0.60825600  0.80346100  0.63038900  1
  O  O44  1  0.39174400  0.19653900  0.36961100  1
  O  O45  1  0.07005800  0.90676500  0.66073200  1
  O  O46  1  0.17784400  0.48037800  0.09125900  1
  O  O47  1  0.36147900  0.63432900  0.93433300  1
  O  O48  1  0.85660400  0.52886200  0.07627100  1
  O  O49  1  0.72144900  0.29252300  0.33004800  1
  O  O50  1  0.92881400  0.17702100  0.47280100  1
  O  O51  1  0.49619400  0.92148800  0.73491600  1
  O  O52  1  0.77088100  0.98328700  0.67834100  1
  O  O53  1  0.65586400  0.71963600  0.93461500  1
  O  O54  1  0.99244200  0.42150100  0.27693300  1
  O  O55  1  0.56247500  0.15268700  0.53986400  1
  O  O56  1  0.06247500  0.84731300  0.96013600  1
  O  O57  1  0.49244200  0.57849900  0.22306700  1
  O  O58  1  0.15586400  0.28036400  0.56538500  1
  O  O59  1  0.27088100  0.01671300  0.82165900  1
  O  O60  1  0.99619400  0.07851200  0.76508400  1
  O  O61  1  0.42881400  0.82297900  0.02719900  1
  O  O62  1  0.22144900  0.70747700  0.16995200  1
  O  O63  1  0.35660400  0.47113800  0.42372900  1
  O  O64  1  0.86147900  0.36567100  0.56566700  1
  O  O65  1  0.57005800  0.09323500  0.83926800  1
  O  O66  1  0.67784400  0.51962200  0.40874100  1
  O  O67  1  0.89174400  0.80346100  0.13038900  1
