# generated using pymatgen
data_MnP2O7
_symmetry_space_group_name_H-M   'P 1'
_cell_length_a   5.01601800
_cell_length_b   8.49096500
_cell_length_c   13.24753739
_cell_angle_alpha   64.25244311
_cell_angle_beta   90.00000000
_cell_angle_gamma   90.00000000
_symmetry_Int_Tables_number   1
_chemical_formula_structural   MnP2O7
_chemical_formula_sum   'Mn4 P8 O28'
_cell_volume   508.20570551
_cell_formula_units_Z   4
loop_
 _symmetry_equiv_pos_site_id
 _symmetry_equiv_pos_as_xyz
  1  'x, y, z'
loop_
 _atom_site_type_symbol
 _atom_site_label
 _atom_site_symmetry_multiplicity
 _atom_site_fract_x
 _atom_site_fract_y
 _atom_site_fract_z
 _atom_site_occupancy
  Mn  Mn0  1  0.25226700  0.73244900  0.52854000  1
  Mn  Mn1  1  0.75226700  0.26755100  0.97146000  1
  Mn  Mn2  1  0.24773300  0.73244900  0.02854000  1
  Mn  Mn3  1  0.74773300  0.26755100  0.47146000  1
  P  P4  1  0.74258000  0.83546700  0.63509800  1
  P  P5  1  0.26041400  0.31425300  0.11481100  1
  P  P6  1  0.24258000  0.16453300  0.86490200  1
  P  P7  1  0.23958600  0.31425300  0.61481100  1
  P  P8  1  0.76041400  0.68574700  0.38518900  1
  P  P9  1  0.75742000  0.83546700  0.13509800  1
  P  P10  1  0.73958600  0.68574700  0.88518900  1
  P  P11  1  0.25742000  0.16453300  0.36490200  1
  O  O12  1  0.45297300  0.77316500  0.63901000  1
  O  O13  1  0.94361200  0.71050200  0.62036200  1
  O  O14  1  0.81893300  0.51205300  0.88468000  1
  O  O15  1  0.55344900  0.31044600  0.08237300  1
  O  O16  1  0.22010400  0.17099200  0.24255800  1
  O  O17  1  0.19955700  0.97670000  0.44587900  1
  O  O18  1  0.07801500  0.24571400  0.05097600  1
  O  O19  1  0.31893300  0.48794700  0.61532000  1
  O  O20  1  0.44361200  0.28949800  0.87963800  1
  O  O21  1  0.95297300  0.22683500  0.86099000  1
  O  O22  1  0.57801500  0.75428600  0.44902400  1
  O  O23  1  0.69955700  0.02330000  0.05412100  1
  O  O24  1  0.72010400  0.82900800  0.25744200  1
  O  O25  1  0.94655100  0.31044600  0.58237300  1
  O  O26  1  0.05344900  0.68955400  0.41762700  1
  O  O27  1  0.27989600  0.17099200  0.74255800  1
  O  O28  1  0.30044300  0.97670000  0.94587900  1
  O  O29  1  0.42198500  0.24571400  0.55097600  1
  O  O30  1  0.04702700  0.77316500  0.13901000  1
  O  O31  1  0.55638800  0.71050200  0.12036200  1
  O  O32  1  0.68106700  0.51205300  0.38468000  1
  O  O33  1  0.92198500  0.75428600  0.94902400  1
  O  O34  1  0.80044300  0.02330000  0.55412100  1
  O  O35  1  0.77989600  0.82900800  0.75744200  1
  O  O36  1  0.44655100  0.68955400  0.91762700  1
  O  O37  1  0.18106700  0.48794700  0.11532000  1
  O  O38  1  0.05638800  0.28949800  0.37963800  1
  O  O39  1  0.54702700  0.22683500  0.36099000  1
