# generated using pymatgen
data_Cu(PO3)3
_symmetry_space_group_name_H-M   'P 1'
_cell_length_a   8.42258600
_cell_length_b   8.44749400
_cell_length_c   9.01583500
_cell_angle_alpha   90.00000000
_cell_angle_beta   90.00000000
_cell_angle_gamma   90.00000000
_symmetry_Int_Tables_number   1
_chemical_formula_structural   Cu(PO3)3
_chemical_formula_sum   'Cu4 P12 O36'
_cell_volume   641.47435850
_cell_formula_units_Z   4
loop_
 _symmetry_equiv_pos_site_id
 _symmetry_equiv_pos_as_xyz
  1  'x, y, z'
loop_
 _atom_site_type_symbol
 _atom_site_label
 _atom_site_symmetry_multiplicity
 _atom_site_fract_x
 _atom_site_fract_y
 _atom_site_fract_z
 _atom_site_occupancy
  Cu  Cu0  1  0.65300500  0.62584100  0.61400800  1
  Cu  Cu1  1  0.84699500  0.37415900  0.11400800  1
  Cu  Cu2  1  0.34699500  0.12584100  0.88599200  1
  Cu  Cu3  1  0.15300500  0.87415900  0.38599200  1
  P  P4  1  0.80133000  0.68112500  0.91876000  1
  P  P5  1  0.02250000  0.68443700  0.66773600  1
  P  P6  1  0.18801300  0.53111900  0.19331900  1
  P  P7  1  0.31198700  0.46888100  0.69331900  1
  P  P8  1  0.47750000  0.31556300  0.16773600  1
  P  P9  1  0.69867000  0.31887500  0.41876000  1
  P  P10  1  0.19867000  0.18112500  0.58124000  1
  P  P11  1  0.97750000  0.18443700  0.83226400  1
  P  P12  1  0.81198700  0.03111900  0.30668100  1
  P  P13  1  0.68801300  0.96888100  0.80668100  1
  P  P14  1  0.52250000  0.81556300  0.33226400  1
  P  P15  1  0.30133000  0.81887500  0.08124000  1
  O  O16  1  0.96037000  0.73340200  0.83077500  1
  O  O17  1  0.61460400  0.68026600  0.39814700  1
  O  O18  1  0.22261900  0.64711600  0.05264400  1
  O  O19  1  0.88634200  0.61840300  0.57831700  1
  O  O20  1  0.84374300  0.61342300  0.06815400  1
  O  O21  1  0.14916800  0.63170600  0.32770600  1
  O  O22  1  0.42039200  0.60170300  0.64790900  1
  O  O23  1  0.69329100  0.58087700  0.82307700  1
  O  O24  1  0.14008500  0.54511700  0.71862700  1
  O  O25  1  0.35991500  0.45488300  0.21862700  1
  O  O26  1  0.80670900  0.41912300  0.32307700  1
  O  O27  1  0.07960800  0.39829700  0.14790900  1
  O  O28  1  0.35083200  0.36829400  0.82770600  1
  O  O29  1  0.65625700  0.38657700  0.56815400  1
  O  O30  1  0.61365800  0.38159700  0.07831700  1
  O  O31  1  0.27738100  0.35288400  0.55264400  1
  O  O32  1  0.88539600  0.31973400  0.89814700  1
  O  O33  1  0.53963000  0.26659800  0.33077500  1
  O  O34  1  0.03963000  0.23340200  0.66922500  1
  O  O35  1  0.38539600  0.18026600  0.10185300  1
  O  O36  1  0.77738100  0.14711600  0.44735600  1
  O  O37  1  0.11365800  0.11840300  0.92168300  1
  O  O38  1  0.15625700  0.11342300  0.43184600  1
  O  O39  1  0.85083200  0.13170600  0.17229400  1
  O  O40  1  0.57960800  0.10170300  0.85209100  1
  O  O41  1  0.30670900  0.08087700  0.67692300  1
  O  O42  1  0.85991500  0.04511700  0.78137300  1
  O  O43  1  0.64008500  0.95488300  0.28137300  1
  O  O44  1  0.19329100  0.91912300  0.17692300  1
  O  O45  1  0.92039200  0.89829700  0.35209100  1
  O  O46  1  0.64916800  0.86829400  0.67229400  1
  O  O47  1  0.34374300  0.88657700  0.93184600  1
  O  O48  1  0.38634200  0.88159700  0.42168300  1
  O  O49  1  0.72261900  0.85288400  0.94735600  1
  O  O50  1  0.11460400  0.81973400  0.60185300  1
  O  O51  1  0.46037000  0.76659800  0.16922500  1
