# generated using pymatgen
data_MnH8(BrO2)2
_symmetry_space_group_name_H-M   'P 1'
_cell_length_a   9.93225400
_cell_length_b   6.33405600
_cell_length_c   12.40654725
_cell_angle_alpha   68.20633957
_cell_angle_beta   90.00000000
_cell_angle_gamma   90.00000000
_symmetry_Int_Tables_number   1
_chemical_formula_structural   MnH8(BrO2)2
_chemical_formula_sum   'Mn4 H32 Br8 O16'
_cell_volume   724.72817460
_cell_formula_units_Z   4
loop_
 _symmetry_equiv_pos_site_id
 _symmetry_equiv_pos_as_xyz
  1  'x, y, z'
loop_
 _atom_site_type_symbol
 _atom_site_label
 _atom_site_symmetry_multiplicity
 _atom_site_fract_x
 _atom_site_fract_y
 _atom_site_fract_z
 _atom_site_occupancy
  Mn  Mn0  1  0.83176700  0.74754300  0.23576300  1
  Mn  Mn1  1  0.33176700  0.25245700  0.26423700  1
  Mn  Mn2  1  0.16823300  0.25245700  0.76423700  1
  Mn  Mn3  1  0.66823300  0.74754300  0.73576300  1
  H  H4  1  0.85182300  0.00421000  0.37793300  1
  H  H5  1  0.35182300  0.99579000  0.12206700  1
  H  H6  1  0.14817700  0.99579000  0.62206700  1
  H  H7  1  0.64817700  0.00421000  0.87793300  1
  H  H8  1  0.97895600  0.06680200  0.29880200  1
  H  H9  1  0.47895600  0.93319800  0.20119800  1
  H  H10  1  0.02104400  0.93319800  0.70119800  1
  H  H11  1  0.52104400  0.06680200  0.79880200  1
  H  H12  1  0.79739800  0.52228100  0.08348500  1
  H  H13  1  0.29739800  0.47771900  0.41651500  1
  H  H14  1  0.20260200  0.47771900  0.91651500  1
  H  H15  1  0.70260200  0.52228100  0.58348500  1
  H  H16  1  0.80433700  0.32469500  0.20701500  1
  H  H17  1  0.30433700  0.67530500  0.29298500  1
  H  H18  1  0.19566300  0.67530500  0.79298500  1
  H  H19  1  0.69566300  0.32469500  0.70701500  1
  H  H20  1  0.06735900  0.71255900  0.11176100  1
  H  H21  1  0.56735900  0.28744100  0.38823900  1
  H  H22  1  0.93264100  0.28744100  0.88823900  1
  H  H23  1  0.43264100  0.71255900  0.61176100  1
  H  H24  1  0.06438300  0.97226100  0.10126200  1
  H  H25  1  0.56438300  0.02773900  0.39873800  1
  H  H26  1  0.93561700  0.02773900  0.89873800  1
  H  H27  1  0.43561700  0.97226100  0.60126200  1
  H  H28  1  0.93650800  0.37378800  0.43340000  1
  H  H29  1  0.43650800  0.62621200  0.06660000  1
  H  H30  1  0.06349200  0.62621200  0.56660000  1
  H  H31  1  0.56349200  0.37378800  0.93340000  1
  H  H32  1  0.06361600  0.50193700  0.35863700  1
  H  H33  1  0.56361600  0.49806300  0.14136300  1
  H  H34  1  0.93638400  0.49806300  0.64136300  1
  H  H35  1  0.43638400  0.50193700  0.85863700  1
  Br  Br36  1  0.68479900  0.03252900  0.05847200  1
  Br  Br37  1  0.18479900  0.96747100  0.44152800  1
  Br  Br38  1  0.31520100  0.96747100  0.94152800  1
  Br  Br39  1  0.81520100  0.03252900  0.55847200  1
  Br  Br40  1  0.63301700  0.64921100  0.38976200  1
  Br  Br41  1  0.13301700  0.35078900  0.11023800  1
  Br  Br42  1  0.36698300  0.35078900  0.61023800  1
  Br  Br43  1  0.86698300  0.64921100  0.88976200  1
  O  O44  1  0.88132700  0.03961500  0.29643900  1
  O  O45  1  0.38132700  0.96038500  0.20356100  1
  O  O46  1  0.11867300  0.96038500  0.70356100  1
  O  O47  1  0.61867300  0.03961500  0.79643900  1
  O  O48  1  0.76932100  0.48083800  0.16557100  1
  O  O49  1  0.26932100  0.51916200  0.33442900  1
  O  O50  1  0.23067900  0.51916200  0.83442900  1
  O  O51  1  0.73067900  0.48083800  0.66557100  1
  O  O52  1  0.01936600  0.82438200  0.13569800  1
  O  O53  1  0.51936600  0.17561800  0.36430200  1
  O  O54  1  0.98063400  0.17561800  0.86430200  1
  O  O55  1  0.48063400  0.82438200  0.63569800  1
  O  O56  1  0.96554200  0.50996400  0.36797500  1
  O  O57  1  0.46554200  0.49003600  0.13202500  1
  O  O58  1  0.03445800  0.49003600  0.63202500  1
  O  O59  1  0.53445800  0.50996400  0.86797500  1
