# generated using pymatgen
data_NaH5SO4
_symmetry_space_group_name_H-M   'P 1'
_cell_length_a   21.56037900
_cell_length_b   5.99173600
_cell_length_c   7.62628059
_cell_angle_alpha   75.76175926
_cell_angle_beta   90.00000000
_cell_angle_gamma   90.00000000
_symmetry_Int_Tables_number   1
_chemical_formula_structural   NaH5SO4
_chemical_formula_sum   'Na8 H40 S8 O32'
_cell_volume   954.93041022
_cell_formula_units_Z   8
loop_
 _symmetry_equiv_pos_site_id
 _symmetry_equiv_pos_as_xyz
  1  'x, y, z'
loop_
 _atom_site_type_symbol
 _atom_site_label
 _atom_site_symmetry_multiplicity
 _atom_site_fract_x
 _atom_site_fract_y
 _atom_site_fract_z
 _atom_site_occupancy
  Na  Na0  1  0.65941000  0.72504500  0.91804000  1
  Na  Na1  1  0.15941000  0.27495500  0.58196000  1
  Na  Na2  1  0.34059000  0.27495500  0.08196000  1
  Na  Na3  1  0.84059000  0.72504500  0.41804000  1
  Na  Na4  1  0.59179100  0.25537500  0.78507900  1
  Na  Na5  1  0.09179100  0.74462500  0.71492100  1
  Na  Na6  1  0.40820900  0.74462500  0.21492100  1
  Na  Na7  1  0.90820900  0.25537500  0.28507900  1
  H  H8  1  0.77840900  0.47681000  0.86989300  1
  H  H9  1  0.27840900  0.52319000  0.63010700  1
  H  H10  1  0.22159100  0.52319000  0.13010700  1
  H  H11  1  0.72159100  0.47681000  0.36989300  1
  H  H12  1  0.78973900  0.74179500  0.81273400  1
  H  H13  1  0.28973900  0.25820500  0.68726600  1
  H  H14  1  0.21026100  0.25820500  0.18726600  1
  H  H15  1  0.71026100  0.74179500  0.31273400  1
  H  H16  1  0.72806500  0.13846600  0.75562300  1
  H  H17  1  0.22806500  0.86153400  0.74437700  1
  H  H18  1  0.27193500  0.86153400  0.24437700  1
  H  H19  1  0.77193500  0.13846600  0.25562300  1
  H  H20  1  0.68951100  0.11131100  0.58793700  1
  H  H21  1  0.18951100  0.88868900  0.91206300  1
  H  H22  1  0.31048900  0.88868900  0.41206300  1
  H  H23  1  0.81048900  0.11131100  0.08793700  1
  H  H24  1  0.67034000  0.61238900  0.56424300  1
  H  H25  1  0.17034000  0.38761100  0.93575700  1
  H  H26  1  0.32966000  0.38761100  0.43575700  1
  H  H27  1  0.82966000  0.61238900  0.06424300  1
  H  H28  1  0.60974300  0.75369000  0.57421600  1
  H  H29  1  0.10974300  0.24631000  0.92578400  1
  H  H30  1  0.39025700  0.24631000  0.42578400  1
  H  H31  1  0.89025700  0.75369000  0.07421600  1
  H  H32  1  0.51682000  0.85199700  0.81450800  1
  H  H33  1  0.01682000  0.14800300  0.68549200  1
  H  H34  1  0.48318000  0.14800300  0.18549200  1
  H  H35  1  0.98318000  0.85199700  0.31450800  1
  H  H36  1  0.53780300  0.78566800  0.01825500  1
  H  H37  1  0.03780300  0.21433200  0.48174500  1
  H  H38  1  0.46219700  0.21433200  0.98174500  1
  H  H39  1  0.96219700  0.78566800  0.51825500  1
  H  H40  1  0.96287900  0.75512800  0.81099800  1
  H  H41  1  0.46287900  0.24487200  0.68900200  1
  H  H42  1  0.03712100  0.24487200  0.18900200  1
  H  H43  1  0.53712100  0.75512800  0.31099800  1
  H  H44  1  0.96526700  0.49550600  0.79638100  1
  H  H45  1  0.46526700  0.50449400  0.70361900  1
  H  H46  1  0.03473300  0.50449400  0.20361900  1
  H  H47  1  0.53473300  0.49550600  0.29638100  1
  S  S48  1  0.93350500  0.09771400  0.88885900  1
  S  S49  1  0.43350500  0.90228600  0.61114100  1
  S  S50  1  0.06649500  0.90228600  0.11114100  1
  S  S51  1  0.56649500  0.09771400  0.38885900  1
  S  S52  1  0.85735800  0.14613400  0.72291600  1
  S  S53  1  0.35735800  0.85386600  0.77708400  1
  S  S54  1  0.14264200  0.85386600  0.27708400  1
  S  S55  1  0.64264200  0.14613400  0.22291600  1
  O  O56  1  0.87063800  0.33672300  0.56373700  1
  O  O57  1  0.37063800  0.66327700  0.93626300  1
  O  O58  1  0.12936200  0.66327700  0.43626300  1
  O  O59  1  0.62936200  0.33672300  0.06373700  1
  O  O60  1  0.84330700  0.92966100  0.66938500  1
  O  O61  1  0.34330700  0.07033900  0.83061500  1
  O  O62  1  0.15669300  0.07033900  0.33061500  1
  O  O63  1  0.65669300  0.92966100  0.16938500  1
  O  O64  1  0.80412500  0.20387000  0.83121700  1
  O  O65  1  0.30412500  0.79613000  0.66878300  1
  O  O66  1  0.19587500  0.79613000  0.16878300  1
  O  O67  1  0.69587500  0.20387000  0.33121700  1
  O  O68  1  0.76833500  0.62071000  0.90510600  1
  O  O69  1  0.26833500  0.37929000  0.59489400  1
  O  O70  1  0.23166500  0.37929000  0.09489400  1
  O  O71  1  0.73166500  0.62071000  0.40510600  1
  O  O72  1  0.68695200  0.09186900  0.71974400  1
  O  O73  1  0.18695200  0.90813100  0.78025600  1
  O  O74  1  0.31304800  0.90813100  0.28025600  1
  O  O75  1  0.81304800  0.09186900  0.21974400  1
  O  O76  1  0.63305800  0.61747400  0.64029400  1
  O  O77  1  0.13305800  0.38252600  0.85970600  1
  O  O78  1  0.36694200  0.38252600  0.35970600  1
  O  O79  1  0.86694200  0.61747400  0.14029400  1
  O  O80  1  0.55218800  0.86193700  0.89425400  1
  O  O81  1  0.05218800  0.13806300  0.60574600  1
  O  O82  1  0.44781200  0.13806300  0.10574600  1
  O  O83  1  0.94781200  0.86193700  0.39425400  1
  O  O84  1  0.98362800  0.64947700  0.74831400  1
  O  O85  1  0.48362800  0.35052300  0.75168600  1
  O  O86  1  0.01637200  0.35052300  0.25168600  1
  O  O87  1  0.51637200  0.64947700  0.24831400  1
