# generated using pymatgen
data_RbNd(PO3)4
_symmetry_space_group_name_H-M   'P 1'
_cell_length_a   9.17061800
_cell_length_b   10.64689100
_cell_length_c   13.06285871
_cell_angle_alpha   54.95649346
_cell_angle_beta   90.00000000
_cell_angle_gamma   90.00000000
_symmetry_Int_Tables_number   1
_chemical_formula_structural   RbNd(PO3)4
_chemical_formula_sum   'Rb4 Nd4 P16 O48'
_cell_volume   1044.22254013
_cell_formula_units_Z   4
loop_
 _symmetry_equiv_pos_site_id
 _symmetry_equiv_pos_as_xyz
  1  'x, y, z'
loop_
 _atom_site_type_symbol
 _atom_site_label
 _atom_site_symmetry_multiplicity
 _atom_site_fract_x
 _atom_site_fract_y
 _atom_site_fract_z
 _atom_site_occupancy
  Rb  Rb0  1  0.07084800  0.75939900  0.04146900  1
  Rb  Rb1  1  0.57084800  0.24060100  0.45853100  1
  Rb  Rb2  1  0.92915200  0.24060100  0.95853100  1
  Rb  Rb3  1  0.42915200  0.75939900  0.54146900  1
  Nd  Nd4  1  0.72673800  0.68460200  0.81591800  1
  Nd  Nd5  1  0.22673800  0.31539800  0.68408200  1
  Nd  Nd6  1  0.27326200  0.31539800  0.18408200  1
  Nd  Nd7  1  0.77326200  0.68460200  0.31591800  1
  P  P8  1  0.97254700  0.02615800  0.72469100  1
  P  P9  1  0.47254700  0.97384200  0.77530900  1
  P  P10  1  0.02745300  0.97384200  0.27530900  1
  P  P11  1  0.52745300  0.02615800  0.22469100  1
  P  P12  1  0.17282900  0.67986000  0.35900300  1
  P  P13  1  0.67282900  0.32014000  0.14099700  1
  P  P14  1  0.82717100  0.32014000  0.64099700  1
  P  P15  1  0.32717100  0.67986000  0.85900300  1
  P  P16  1  0.40566500  0.61532200  0.23986000  1
  P  P17  1  0.90566500  0.38467800  0.26014000  1
  P  P18  1  0.59433500  0.38467800  0.76014000  1
  P  P19  1  0.09433500  0.61532200  0.73986000  1
  P  P20  1  0.60299900  0.80144100  0.02109100  1
  P  P21  1  0.10299900  0.19855900  0.47890900  1
  P  P22  1  0.39700100  0.19855900  0.97890900  1
  P  P23  1  0.89700100  0.80144100  0.52109100  1
  O  O24  1  0.29304900  0.72471200  0.25153900  1
  O  O25  1  0.79304900  0.27528800  0.24846100  1
  O  O26  1  0.70695100  0.27528800  0.74846100  1
  O  O27  1  0.20695100  0.72471200  0.75153900  1
  O  O28  1  0.91699900  0.93224700  0.21404700  1
  O  O29  1  0.41699900  0.06775300  0.28595300  1
  O  O30  1  0.08300100  0.06775300  0.78595300  1
  O  O31  1  0.58300100  0.93224700  0.71404700  1
  O  O32  1  0.32161500  0.48644800  0.25253100  1
  O  O33  1  0.82161500  0.51355200  0.24746900  1
  O  O34  1  0.67838500  0.51355200  0.74746900  1
  O  O35  1  0.17838500  0.48644800  0.75253100  1
  O  O36  1  0.03478300  0.63794300  0.32370800  1
  O  O37  1  0.53478300  0.36205700  0.17629200  1
  O  O38  1  0.96521700  0.36205700  0.67629200  1
  O  O39  1  0.46521700  0.63794300  0.82370800  1
  O  O40  1  0.03513200  0.42339500  0.17654800  1
  O  O41  1  0.53513200  0.57660500  0.32345200  1
  O  O42  1  0.96486800  0.57660500  0.82345200  1
  O  O43  1  0.46486800  0.42339500  0.67654800  1
  O  O44  1  0.90522100  0.86982300  0.80417100  1
  O  O45  1  0.40522100  0.13017700  0.69582900  1
  O  O46  1  0.09477900  0.13017700  0.19582900  1
  O  O47  1  0.59477900  0.86982300  0.30417100  1
  O  O48  1  0.65529000  0.69945500  0.98417600  1
  O  O49  1  0.15529000  0.30054500  0.51582400  1
  O  O50  1  0.34471000  0.30054500  0.01582400  1
  O  O51  1  0.84471000  0.69945500  0.48417600  1
  O  O52  1  0.34253400  0.84661200  0.83570700  1
  O  O53  1  0.84253400  0.15338800  0.66429300  1
  O  O54  1  0.65746600  0.15338800  0.16429300  1
  O  O55  1  0.15746600  0.84661200  0.33570700  1
  O  O56  1  0.44928300  0.73726000  0.09560800  1
  O  O57  1  0.94928300  0.26274000  0.40439200  1
  O  O58  1  0.55071700  0.26274000  0.90439200  1
  O  O59  1  0.05071700  0.73726000  0.59560800  1
  O  O60  1  0.73989700  0.42421200  0.01407500  1
  O  O61  1  0.23989700  0.57578800  0.48592500  1
  O  O62  1  0.26010300  0.57578800  0.98592500  1
  O  O63  1  0.76010300  0.42421200  0.51407500  1
  O  O64  1  0.79412800  0.83790200  0.59013400  1
  O  O65  1  0.29412800  0.16209800  0.90986600  1
  O  O66  1  0.20587200  0.16209800  0.40986600  1
  O  O67  1  0.70587200  0.83790200  0.09013400  1
  O  O68  1  0.04127700  0.04171100  0.60305300  1
  O  O69  1  0.54127700  0.95828900  0.89694700  1
  O  O70  1  0.95872300  0.95828900  0.39694700  1
  O  O71  1  0.45872300  0.04171100  0.10305300  1
