# generated using pymatgen
data_Ba2SnS4
_symmetry_space_group_name_H-M   'P 1'
_cell_length_a   7.51816100
_cell_length_b   12.82133900
_cell_length_c   18.07472600
_cell_angle_alpha   90.00000000
_cell_angle_beta   90.00000000
_cell_angle_gamma   90.00000000
_symmetry_Int_Tables_number   1
_chemical_formula_structural   Ba2SnS4
_chemical_formula_sum   'Ba16 Sn8 S32'
_cell_volume   1742.27509024
_cell_formula_units_Z   8
loop_
 _symmetry_equiv_pos_site_id
 _symmetry_equiv_pos_as_xyz
  1  'x, y, z'
loop_
 _atom_site_type_symbol
 _atom_site_label
 _atom_site_symmetry_multiplicity
 _atom_site_fract_x
 _atom_site_fract_y
 _atom_site_fract_z
 _atom_site_occupancy
  Ba  Ba0  1  0.71749800  0.00148300  0.62620900  1
  Ba  Ba1  1  0.28250200  0.50148300  0.37379100  1
  Ba  Ba2  1  0.78250200  0.00148300  0.12620900  1
  Ba  Ba3  1  0.21749800  0.50148300  0.87379100  1
  Ba  Ba4  1  0.69822900  0.87837100  0.87489900  1
  Ba  Ba5  1  0.30177100  0.37837100  0.12510100  1
  Ba  Ba6  1  0.80177100  0.87837100  0.37489900  1
  Ba  Ba7  1  0.19822900  0.37837100  0.62510100  1
  Ba  Ba8  1  0.69892100  0.61476100  0.68828400  1
  Ba  Ba9  1  0.30107900  0.11476100  0.31171600  1
  Ba  Ba10  1  0.80107900  0.61476100  0.18828400  1
  Ba  Ba11  1  0.19892100  0.11476100  0.81171600  1
  Ba  Ba12  1  0.72542600  0.26131500  0.94459100  1
  Ba  Ba13  1  0.27457400  0.76131500  0.05540900  1
  Ba  Ba14  1  0.77457400  0.26131500  0.44459100  1
  Ba  Ba15  1  0.22542600  0.76131500  0.55540900  1
  Sn  Sn16  1  0.77107600  0.60812300  0.97585600  1
  Sn  Sn17  1  0.22892400  0.10812300  0.02414400  1
  Sn  Sn18  1  0.72892400  0.60812300  0.47585600  1
  Sn  Sn19  1  0.27107600  0.10812300  0.52414400  1
  Sn  Sn20  1  0.71515700  0.27269800  0.73354100  1
  Sn  Sn21  1  0.28484300  0.77269800  0.26645900  1
  Sn  Sn22  1  0.78484300  0.27269800  0.23354100  1
  Sn  Sn23  1  0.21515700  0.77269800  0.76645900  1
  S  S24  1  0.99996900  0.90936900  0.75142300  1
  S  S25  1  0.00003100  0.40936900  0.24857700  1
  S  S26  1  0.50003100  0.90936900  0.25142300  1
  S  S27  1  0.49996900  0.40936900  0.74857700  1
  S  S28  1  0.96021000  0.48317700  0.49254200  1
  S  S29  1  0.03979000  0.98317700  0.50745800  1
  S  S30  1  0.53979000  0.48317700  0.99254200  1
  S  S31  1  0.46021000  0.98317700  0.00745800  1
  S  S32  1  0.98199200  0.32512500  0.80080900  1
  S  S33  1  0.01800800  0.82512500  0.19919100  1
  S  S34  1  0.51800800  0.32512500  0.30080900  1
  S  S35  1  0.48199200  0.82512500  0.69919100  1
  S  S36  1  0.96068500  0.04490700  0.96315200  1
  S  S37  1  0.03931500  0.54490700  0.03684800  1
  S  S38  1  0.53931500  0.04490700  0.46315200  1
  S  S39  1  0.46068500  0.54490700  0.53684800  1
  S  S40  1  0.85439900  0.64769500  0.85148000  1
  S  S41  1  0.14560100  0.14769500  0.14852000  1
  S  S42  1  0.64560100  0.64769500  0.35148000  1
  S  S43  1  0.35439900  0.14769500  0.64852000  1
  S  S44  1  0.84070300  0.23638500  0.61481700  1
  S  S45  1  0.15929700  0.73638500  0.38518300  1
  S  S46  1  0.65929700  0.23638500  0.11481700  1
  S  S47  1  0.34070300  0.73638500  0.88518300  1
  S  S48  1  0.79718900  0.76726400  0.54254600  1
  S  S49  1  0.20281100  0.26726400  0.45745400  1
  S  S50  1  0.70281100  0.76726400  0.04254600  1
  S  S51  1  0.29718900  0.26726400  0.95745400  1
  S  S52  1  0.63362400  0.11512600  0.80129000  1
  S  S53  1  0.36637600  0.61512600  0.19871000  1
  S  S54  1  0.86637600  0.11512600  0.30129000  1
  S  S55  1  0.13362400  0.61512600  0.69871000  1
