# generated using pymatgen
data_CsNb(PO4)2
_symmetry_space_group_name_H-M   'P 1'
_cell_length_a   9.04871500
_cell_length_b   4.99503300
_cell_length_c   19.00570102
_cell_angle_alpha   80.25823136
_cell_angle_beta   90.00000000
_cell_angle_gamma   90.00000000
_symmetry_Int_Tables_number   1
_chemical_formula_structural   CsNb(PO4)2
_chemical_formula_sum   'Cs4 Nb4 P8 O32'
_cell_volume   846.64473746
_cell_formula_units_Z   4
loop_
 _symmetry_equiv_pos_site_id
 _symmetry_equiv_pos_as_xyz
  1  'x, y, z'
loop_
 _atom_site_type_symbol
 _atom_site_label
 _atom_site_symmetry_multiplicity
 _atom_site_fract_x
 _atom_site_fract_y
 _atom_site_fract_z
 _atom_site_occupancy
  Cs  Cs0  1  0.28955100  0.83569600  0.93942300  1
  Cs  Cs1  1  0.78955100  0.16430400  0.56057700  1
  Cs  Cs2  1  0.71044900  0.16430400  0.06057700  1
  Cs  Cs3  1  0.21044900  0.83569600  0.43942300  1
  Nb  Nb4  1  0.94277500  0.33888000  0.83202500  1
  Nb  Nb5  1  0.44277500  0.66112000  0.66797500  1
  Nb  Nb6  1  0.05722500  0.66112000  0.16797500  1
  Nb  Nb7  1  0.55722500  0.33888000  0.33202500  1
  P  P8  1  0.71538100  0.80887800  0.89268400  1
  P  P9  1  0.21538100  0.19112200  0.60731600  1
  P  P10  1  0.28461900  0.19112200  0.10731600  1
  P  P11  1  0.78461900  0.80887800  0.39268400  1
  P  P12  1  0.61924200  0.12710300  0.75750700  1
  P  P13  1  0.11924200  0.87289700  0.74249300  1
  P  P14  1  0.38075800  0.87289700  0.24249300  1
  P  P15  1  0.88075800  0.12710300  0.25750700  1
  O  O16  1  0.06682800  0.40835000  0.89775200  1
  O  O17  1  0.56682800  0.59165000  0.60224800  1
  O  O18  1  0.93317200  0.59165000  0.10224800  1
  O  O19  1  0.43317200  0.40835000  0.39775200  1
  O  O20  1  0.77304500  0.57708400  0.85537500  1
  O  O21  1  0.27304500  0.42291600  0.64462500  1
  O  O22  1  0.22695500  0.42291600  0.14462500  1
  O  O23  1  0.72695500  0.57708400  0.35537500  1
  O  O24  1  0.84177300  0.01692400  0.89609200  1
  O  O25  1  0.34177300  0.98307600  0.60390800  1
  O  O26  1  0.15822700  0.98307600  0.10390800  1
  O  O27  1  0.65822700  0.01692400  0.39609200  1
  O  O28  1  0.63817300  0.72142200  0.96199100  1
  O  O29  1  0.13817300  0.27857800  0.53800900  1
  O  O30  1  0.36182700  0.27857800  0.03800900  1
  O  O31  1  0.86182700  0.72142200  0.46199100  1
  O  O32  1  0.59121900  0.96674400  0.83773300  1
  O  O33  1  0.09121900  0.03325600  0.66226700  1
  O  O34  1  0.40878100  0.03325600  0.16226700  1
  O  O35  1  0.90878100  0.96674400  0.33773300  1
  O  O36  1  0.77827700  0.21972400  0.75021200  1
  O  O37  1  0.27827700  0.78027600  0.74978800  1
  O  O38  1  0.22172300  0.78027600  0.24978800  1
  O  O39  1  0.72172300  0.21972400  0.25021200  1
  O  O40  1  0.00485700  0.64000800  0.75044700  1
  O  O41  1  0.50485700  0.35999200  0.74955300  1
  O  O42  1  0.99514300  0.35999200  0.24955300  1
  O  O43  1  0.49514300  0.64000800  0.25044700  1
  O  O44  1  0.08191900  0.07049200  0.79401100  1
  O  O45  1  0.58191900  0.92950800  0.70598900  1
  O  O46  1  0.91808100  0.92950800  0.20598900  1
  O  O47  1  0.41808100  0.07049200  0.29401100  1
