# generated using pymatgen
data_K2Zn6O7
_symmetry_space_group_name_H-M   'P 1'
_cell_length_a   11.03669500
_cell_length_b   11.03669500
_cell_length_c   3.37145100
_cell_angle_alpha   90.00000000
_cell_angle_beta   90.00000000
_cell_angle_gamma   90.00000000
_symmetry_Int_Tables_number   1
_chemical_formula_structural   K2Zn6O7
_chemical_formula_sum   'K4 Zn12 O14'
_cell_volume   410.67184941
_cell_formula_units_Z   2
loop_
 _symmetry_equiv_pos_site_id
 _symmetry_equiv_pos_as_xyz
  1  'x, y, z'
loop_
 _atom_site_type_symbol
 _atom_site_label
 _atom_site_symmetry_multiplicity
 _atom_site_fract_x
 _atom_site_fract_y
 _atom_site_fract_z
 _atom_site_occupancy
  K  K0  1  0.35965300  0.35965300  0.50000000  1
  K  K1  1  0.85965300  0.14034700  0.00000000  1
  K  K2  1  0.14034700  0.85965300  0.00000000  1
  K  K3  1  0.64034700  0.64034700  0.50000000  1
  Zn  Zn4  1  0.08745000  0.34834700  0.00000000  1
  Zn  Zn5  1  0.84834700  0.41255000  0.50000000  1
  Zn  Zn6  1  0.15165300  0.58745000  0.50000000  1
  Zn  Zn7  1  0.91255000  0.65165300  0.00000000  1
  Zn  Zn8  1  0.58745000  0.15165300  0.50000000  1
  Zn  Zn9  1  0.41255000  0.84834700  0.50000000  1
  Zn  Zn10  1  0.65165300  0.91255000  0.00000000  1
  Zn  Zn11  1  0.34834700  0.08745000  0.00000000  1
  Zn  Zn12  1  0.12118600  0.12118600  0.50000000  1
  Zn  Zn13  1  0.62118600  0.37881400  0.00000000  1
  Zn  Zn14  1  0.37881400  0.62118600  0.00000000  1
  Zn  Zn15  1  0.87881400  0.87881400  0.50000000  1
  O  O16  1  0.99617900  0.31256200  0.50000000  1
  O  O17  1  0.81256200  0.50382100  0.00000000  1
  O  O18  1  0.18743800  0.49617900  0.00000000  1
  O  O19  1  0.00382100  0.68743800  0.50000000  1
  O  O20  1  0.49617900  0.18743800  0.00000000  1
  O  O21  1  0.50382100  0.81256200  0.00000000  1
  O  O22  1  0.68743800  0.00382100  0.50000000  1
  O  O23  1  0.31256200  0.99617900  0.50000000  1
  O  O24  1  0.19181500  0.19181500  0.00000000  1
  O  O25  1  0.69181500  0.30818500  0.50000000  1
  O  O26  1  0.30818500  0.69181500  0.50000000  1
  O  O27  1  0.80818500  0.80818500  0.00000000  1
  O  O28  1  0.00000000  0.00000000  0.50000000  1
  O  O29  1  0.50000000  0.50000000  0.00000000  1
