# generated using pymatgen
data_La3Re2O9
_symmetry_space_group_name_H-M   'P 1'
_cell_length_a   5.70562000
_cell_length_b   6.92185495
_cell_length_c   11.22883621
_cell_angle_alpha   77.45230626
_cell_angle_beta   75.63723162
_cell_angle_gamma   69.23019019
_symmetry_Int_Tables_number   1
_chemical_formula_structural   La3Re2O9
_chemical_formula_sum   'La6 Re4 O18'
_cell_volume   397.57333830
_cell_formula_units_Z   2
loop_
 _symmetry_equiv_pos_site_id
 _symmetry_equiv_pos_as_xyz
  1  'x, y, z'
loop_
 _atom_site_type_symbol
 _atom_site_label
 _atom_site_symmetry_multiplicity
 _atom_site_fract_x
 _atom_site_fract_y
 _atom_site_fract_z
 _atom_site_occupancy
  La  La0  1  0.71685400  0.90528900  0.61957500  1
  La  La1  1  0.28314600  0.09471100  0.38042500  1
  La  La2  1  0.00351400  0.72262800  0.26936900  1
  La  La3  1  0.99648600  0.27737200  0.73063100  1
  La  La4  1  0.22430900  0.66171800  0.88245900  1
  La  La5  1  0.77569100  0.33828200  0.11754100  1
  Re  Re6  1  0.49028000  0.11137200  0.90877500  1
  Re  Re7  1  0.50972000  0.88862800  0.09122500  1
  Re  Re8  1  0.35640600  0.62268500  0.57047800  1
  Re  Re9  1  0.64359400  0.37731500  0.42952200  1
  O  O10  1  0.37277500  0.32128200  0.57764200  1
  O  O11  1  0.62722500  0.67871800  0.42235800  1
  O  O12  1  0.85366400  0.68811000  0.06409300  1
  O  O13  1  0.14633600  0.31189000  0.93590700  1
  O  O14  1  0.30551900  0.91693500  0.58886500  1
  O  O15  1  0.69448100  0.08306500  0.41113500  1
  O  O16  1  0.64119000  0.02117100  0.18407600  1
  O  O17  1  0.35881000  0.97882900  0.81592400  1
  O  O18  1  0.06504300  0.61520600  0.71124100  1
  O  O19  1  0.93495700  0.38479400  0.28875900  1
  O  O20  1  0.41527900  0.44031100  0.31316900  1
  O  O21  1  0.58472100  0.55968900  0.68683100  1
  O  O22  1  0.82124500  0.99132100  0.81017400  1
  O  O23  1  0.17875500  0.00867900  0.18982600  1
  O  O24  1  0.11331100  0.75123900  0.46094700  1
  O  O25  1  0.88668900  0.24876100  0.53905300  1
  O  O26  1  0.61368900  0.32806100  0.92796600  1
  O  O27  1  0.38631100  0.67193900  0.07203400  1
