# generated using pymatgen
data_Y4Al2O9
_symmetry_space_group_name_H-M   'P 1'
_cell_length_a   10.56075800
_cell_length_b   7.43685900
_cell_length_c   11.26096082
_cell_angle_alpha   71.52038303
_cell_angle_beta   90.00000000
_cell_angle_gamma   90.00000000
_symmetry_Int_Tables_number   1
_chemical_formula_structural   Y4Al2O9
_chemical_formula_sum   'Y16 Al8 O36'
_cell_volume   838.81914505
_cell_formula_units_Z   4
loop_
 _symmetry_equiv_pos_site_id
 _symmetry_equiv_pos_as_xyz
  1  'x, y, z'
loop_
 _atom_site_type_symbol
 _atom_site_label
 _atom_site_symmetry_multiplicity
 _atom_site_fract_x
 _atom_site_fract_y
 _atom_site_fract_z
 _atom_site_occupancy
  Y  Y0  1  0.62198500  0.16138200  0.91697200  1
  Y  Y1  1  0.12198500  0.83861800  0.58302800  1
  Y  Y2  1  0.37801500  0.83861800  0.08302800  1
  Y  Y3  1  0.87801500  0.16138200  0.41697200  1
  Y  Y4  1  0.62703800  0.66017400  0.93851200  1
  Y  Y5  1  0.12703800  0.33982600  0.56148800  1
  Y  Y6  1  0.37296200  0.33982600  0.06148800  1
  Y  Y7  1  0.87296200  0.66017400  0.43851200  1
  Y  Y8  1  0.59607200  0.97726900  0.30556100  1
  Y  Y9  1  0.09607200  0.02273100  0.19443900  1
  Y  Y10  1  0.40392800  0.02273100  0.69443900  1
  Y  Y11  1  0.90392800  0.97726900  0.80556100  1
  Y  Y12  1  0.60970200  0.47673700  0.28532600  1
  Y  Y13  1  0.10970200  0.52326300  0.21467400  1
  Y  Y14  1  0.39029800  0.52326300  0.71467400  1
  Y  Y15  1  0.89029800  0.47673700  0.78532600  1
  Al  Al16  1  0.67667700  0.34609400  0.61410300  1
  Al  Al17  1  0.17667700  0.65390600  0.88589700  1
  Al  Al18  1  0.32332300  0.65390600  0.38589700  1
  Al  Al19  1  0.82332300  0.34609400  0.11410300  1
  Al  Al20  1  0.67894100  0.78248400  0.62798900  1
  Al  Al21  1  0.17894100  0.21751600  0.87201100  1
  Al  Al22  1  0.32105900  0.21751600  0.37201100  1
  Al  Al23  1  0.82105900  0.78248400  0.12798900  1
  O  O24  1  0.50808900  0.43545900  0.89214100  1
  O  O25  1  0.00808900  0.56454100  0.60785900  1
  O  O26  1  0.49191100  0.56454100  0.10785900  1
  O  O27  1  0.99191100  0.43545900  0.39214100  1
  O  O28  1  0.49427600  0.92261400  0.89324500  1
  O  O29  1  0.99427600  0.07738600  0.60675500  1
  O  O30  1  0.50572400  0.07738600  0.10675500  1
  O  O31  1  0.00572400  0.92261400  0.39324500  1
  O  O32  1  0.51696100  0.30490700  0.65953600  1
  O  O33  1  0.01696100  0.69509300  0.84046400  1
  O  O34  1  0.48303900  0.69509300  0.34046400  1
  O  O35  1  0.98303900  0.30490700  0.15953600  1
  O  O36  1  0.72998600  0.36244300  0.46254200  1
  O  O37  1  0.22998600  0.63755700  0.03745800  1
  O  O38  1  0.51622300  0.78793600  0.65389200  1
  O  O39  1  0.27001400  0.63755700  0.53745800  1
  O  O40  1  0.73949500  0.56642600  0.61644300  1
  O  O41  1  0.23949500  0.43357400  0.88355700  1
  O  O42  1  0.26050500  0.43357400  0.38355700  1
  O  O43  1  0.76050500  0.56642600  0.11644300  1
  O  O44  1  0.73337900  0.92634300  0.48125100  1
  O  O45  1  0.23337900  0.07365700  0.01874900  1
  O  O46  1  0.26662100  0.07365700  0.51874900  1
  O  O47  1  0.76662100  0.92634300  0.98125100  1
  O  O48  1  0.76173800  0.20987400  0.74743900  1
  O  O49  1  0.26173800  0.79012600  0.75256100  1
  O  O50  1  0.23826200  0.79012600  0.25256100  1
  O  O51  1  0.73826200  0.20987400  0.24743900  1
  O  O52  1  0.76030400  0.76940800  0.76867800  1
  O  O53  1  0.26030400  0.23059200  0.73132200  1
  O  O54  1  0.23969600  0.23059200  0.23132200  1
  O  O55  1  0.73969600  0.76940800  0.26867800  1
  O  O56  1  0.98377700  0.78793600  0.15389200  1
  O  O57  1  0.48377700  0.21206400  0.34610800  1
  O  O58  1  0.01622300  0.21206400  0.84610800  1
  O  O59  1  0.77001400  0.36244300  0.96254200  1
