# generated using pymatgen
data_CaP2H20C4(N2O3)4
_symmetry_space_group_name_H-M   'P 1'
_cell_length_a   21.95284700
_cell_length_b   5.67911700
_cell_length_c   9.31359170
_cell_angle_alpha   53.10229109
_cell_angle_beta   90.00000000
_cell_angle_gamma   90.00000000
_symmetry_Int_Tables_number   1
_chemical_formula_structural   CaP2H20C4(N2O3)4
_chemical_formula_sum   'Ca2 P4 H40 C8 N16 O24'
_cell_volume   928.58286221
_cell_formula_units_Z   2
loop_
 _symmetry_equiv_pos_site_id
 _symmetry_equiv_pos_as_xyz
  1  'x, y, z'
loop_
 _atom_site_type_symbol
 _atom_site_label
 _atom_site_symmetry_multiplicity
 _atom_site_fract_x
 _atom_site_fract_y
 _atom_site_fract_z
 _atom_site_occupancy
  Ca  Ca0  1  0.00000000  0.00000000  0.00000000  1
  Ca  Ca1  1  0.50000000  0.00000000  0.50000000  1
  P  P2  1  0.90957700  0.60731900  0.88840300  1
  P  P3  1  0.40957700  0.39268100  0.61159700  1
  P  P4  1  0.09042300  0.39268100  0.11159700  1
  P  P5  1  0.59042300  0.60731900  0.38840300  1
  H  H6  1  0.81897900  0.64075100  0.77363600  1
  H  H7  1  0.31897900  0.35924900  0.72636400  1
  H  H8  1  0.18102100  0.35924900  0.22636400  1
  H  H9  1  0.68102100  0.64075100  0.27363600  1
  H  H10  1  0.90353500  0.51557000  0.15554600  1
  H  H11  1  0.40353500  0.48443000  0.34445400  1
  H  H12  1  0.09646500  0.48443000  0.84445400  1
  H  H13  1  0.59646500  0.51557000  0.65554600  1
  H  H14  1  0.98433300  0.92045600  0.35409100  1
  H  H15  1  0.48433300  0.07954400  0.14590900  1
  H  H16  1  0.01566700  0.07954400  0.64590900  1
  H  H17  1  0.51566700  0.92045600  0.85409100  1
  H  H18  1  0.95042000  0.69150400  0.57039100  1
  H  H19  1  0.45042000  0.30849600  0.92960900  1
  H  H20  1  0.04958000  0.30849600  0.42960900  1
  H  H21  1  0.54958000  0.69150400  0.07039100  1
  H  H22  1  0.88022700  0.35067800  0.63359100  1
  H  H23  1  0.38022700  0.64932200  0.86640900  1
  H  H24  1  0.11977300  0.64932200  0.36640900  1
  H  H25  1  0.61977300  0.35067800  0.13359100  1
  H  H26  1  0.86158200  0.28660100  0.48044700  1
  H  H27  1  0.36158200  0.71339900  0.01955300  1
  H  H28  1  0.13841800  0.71339900  0.51955300  1
  H  H29  1  0.63841800  0.28660100  0.98044700  1
  H  H30  1  0.84188600  0.09219900  0.99466600  1
  H  H31  1  0.34188600  0.90780100  0.50533400  1
  H  H32  1  0.15811400  0.90780100  0.00533400  1
  H  H33  1  0.65811400  0.09219900  0.49466600  1
  H  H34  1  0.78907100  0.80043700  0.09677000  1
  H  H35  1  0.28907100  0.19956300  0.40323000  1
  H  H36  1  0.21092900  0.19956300  0.90323000  1
  H  H37  1  0.71092900  0.80043700  0.59677000  1
  H  H38  1  0.70320900  0.84257500  0.94981800  1
  H  H39  1  0.20320900  0.15742500  0.55018200  1
  H  H40  1  0.29679100  0.15742500  0.05018200  1
  H  H41  1  0.79679100  0.84257500  0.44981800  1
  H  H42  1  0.68015400  0.18243800  0.75604200  1
  H  H43  1  0.18015400  0.81756200  0.74395800  1
  H  H44  1  0.31984600  0.81756200  0.24395800  1
  H  H45  1  0.81984600  0.18243800  0.25604200  1
  C  C46  1  0.92017300  0.63107600  0.38731300  1
  C  C47  1  0.42017300  0.36892400  0.11268700  1
  C  C48  1  0.07982700  0.36892400  0.61268700  1
  C  C49  1  0.57982700  0.63107600  0.88731300  1
  C  C50  1  0.75971400  0.19228600  0.86733000  1
  C  C51  1  0.25971400  0.80771400  0.63267000  1
  C  C52  1  0.24028600  0.80771400  0.13267000  1
  C  C53  1  0.74028600  0.19228600  0.36733000  1
  N  N54  1  0.95175100  0.77148500  0.43882300  1
  N  N55  1  0.45175100  0.22851500  0.06117700  1
  N  N56  1  0.04824900  0.22851500  0.56117700  1
  N  N57  1  0.54824900  0.77148500  0.93882300  1
  N  N58  1  0.87855400  0.42855800  0.50270600  1
  N  N59  1  0.37855400  0.57144200  0.99729400  1
  N  N60  1  0.12144600  0.57144200  0.49729400  1
  N  N61  1  0.62144600  0.42855800  0.00270600  1
  N  N62  1  0.79864300  0.01945900  0.00493500  1
  N  N63  1  0.29864300  0.98054100  0.49506500  1
  N  N64  1  0.20135700  0.98054100  0.99506500  1
  N  N65  1  0.70135700  0.01945900  0.50493500  1
  N  N66  1  0.70735800  0.06566300  0.86696400  1
  N  N67  1  0.20735800  0.93433700  0.63303600  1
  N  N68  1  0.29264200  0.93433700  0.13303600  1
  N  N69  1  0.79264200  0.06566300  0.36696400  1
  O  O70  1  0.95626900  0.83880400  0.84458100  1
  O  O71  1  0.45626900  0.16119600  0.65541900  1
  O  O72  1  0.04373100  0.16119600  0.15541900  1
  O  O73  1  0.54373100  0.83880400  0.34458100  1
  O  O74  1  0.92751600  0.38630300  0.85335200  1
  O  O75  1  0.42751600  0.61369700  0.64664800  1
  O  O76  1  0.07248400  0.61369700  0.14664800  1
  O  O77  1  0.57248400  0.38630300  0.35335200  1
  O  O78  1  0.84937400  0.77284700  0.77800200  1
  O  O79  1  0.34937400  0.22715300  0.72199800  1
  O  O80  1  0.15062600  0.22715300  0.22199800  1
  O  O81  1  0.65062600  0.77284700  0.27800200  1
  O  O82  1  0.89130200  0.41889500  0.09744800  1
  O  O83  1  0.39130200  0.58110500  0.40255200  1
  O  O84  1  0.10869800  0.58110500  0.90255200  1
  O  O85  1  0.60869800  0.41889500  0.59744800  1
  O  O86  1  0.92751300  0.69581900  0.23072400  1
  O  O87  1  0.42751300  0.30418100  0.26927600  1
  O  O88  1  0.07248700  0.30418100  0.76927600  1
  O  O89  1  0.57248700  0.69581900  0.73072400  1
  O  O90  1  0.76990700  0.46476900  0.74637900  1
  O  O91  1  0.26990700  0.53523100  0.75362100  1
  O  O92  1  0.23009300  0.53523100  0.25362100  1
  O  O93  1  0.73009300  0.46476900  0.24637900  1
