# generated using pymatgen
data_Hg2AsF6
_symmetry_space_group_name_H-M   'P 1'
_cell_length_a   11.87173100
_cell_length_b   5.57650300
_cell_length_c   10.19526263
_cell_angle_alpha   87.97377025
_cell_angle_beta   90.00000000
_cell_angle_gamma   90.00000000
_symmetry_Int_Tables_number   1
_chemical_formula_structural   Hg2AsF6
_chemical_formula_sum   'Hg8 As4 F24'
_cell_volume   674.53233919
_cell_formula_units_Z   4
loop_
 _symmetry_equiv_pos_site_id
 _symmetry_equiv_pos_as_xyz
  1  'x, y, z'
loop_
 _atom_site_type_symbol
 _atom_site_label
 _atom_site_symmetry_multiplicity
 _atom_site_fract_x
 _atom_site_fract_y
 _atom_site_fract_z
 _atom_site_occupancy
  Hg  Hg0  1  0.91775300  0.00230200  0.60995000  1
  Hg  Hg1  1  0.41775300  0.99769800  0.89005000  1
  Hg  Hg2  1  0.08224700  0.99769800  0.39005000  1
  Hg  Hg3  1  0.58224700  0.00230200  0.10995000  1
  Hg  Hg4  1  0.97619200  0.99908000  0.87086400  1
  Hg  Hg5  1  0.47619200  0.00092000  0.62913600  1
  Hg  Hg6  1  0.02380800  0.00092000  0.12913600  1
  Hg  Hg7  1  0.52380800  0.99908000  0.37086400  1
  As  As8  1  0.70481000  0.50147000  0.82772700  1
  As  As9  1  0.20481000  0.49853000  0.67227300  1
  As  As10  1  0.29519000  0.49853000  0.17227300  1
  As  As11  1  0.79519000  0.50147000  0.32772700  1
  F  F12  1  0.68694000  0.76120900  0.72358700  1
  F  F13  1  0.18694000  0.23879100  0.77641300  1
  F  F14  1  0.31306000  0.23879100  0.27641300  1
  F  F15  1  0.81306000  0.76120900  0.22358700  1
  F  F16  1  0.72404900  0.23992000  0.93193200  1
  F  F17  1  0.22404900  0.76008000  0.56806800  1
  F  F18  1  0.27595100  0.76008000  0.06806800  1
  F  F19  1  0.77595100  0.23992000  0.43193200  1
  F  F20  1  0.73028300  0.68896700  0.96178200  1
  F  F21  1  0.23028300  0.31103300  0.53821800  1
  F  F22  1  0.26971700  0.31103300  0.03821800  1
  F  F23  1  0.76971700  0.68896700  0.46178200  1
  F  F24  1  0.67966000  0.31453700  0.69385400  1
  F  F25  1  0.17966000  0.68546300  0.80614600  1
  F  F26  1  0.32034000  0.68546300  0.30614600  1
  F  F27  1  0.82034000  0.31453700  0.19385400  1
  F  F28  1  0.85168500  0.50071200  0.79301400  1
  F  F29  1  0.35168500  0.49928800  0.70698600  1
  F  F30  1  0.14831500  0.49928800  0.20698600  1
  F  F31  1  0.64831500  0.50071200  0.29301400  1
  F  F32  1  0.55908300  0.50024300  0.86529400  1
  F  F33  1  0.05908300  0.49975700  0.63470600  1
  F  F34  1  0.44091700  0.49975700  0.13470600  1
  F  F35  1  0.94091700  0.50024300  0.36529400  1
