# generated using pymatgen
data_Al2Si2H4O9
_symmetry_space_group_name_H-M   'P 1'
_cell_length_a   5.21297900
_cell_length_b   7.47878339
_cell_length_c   9.05154901
_cell_angle_alpha   91.78713575
_cell_angle_beta   89.72805834
_cell_angle_gamma   104.97455313
_symmetry_Int_Tables_number   1
_chemical_formula_structural   Al2Si2H4O9
_chemical_formula_sum   'Al4 Si4 H8 O18'
_cell_volume   340.73865155
_cell_formula_units_Z   2
loop_
 _symmetry_equiv_pos_site_id
 _symmetry_equiv_pos_as_xyz
  1  'x, y, z'
loop_
 _atom_site_type_symbol
 _atom_site_label
 _atom_site_symmetry_multiplicity
 _atom_site_fract_x
 _atom_site_fract_y
 _atom_site_fract_z
 _atom_site_occupancy
  Al  Al0  1  0.64062600  0.54279300  0.50707400  1
  Al  Al1  1  0.64444300  0.54173700  0.17126100  1
  Al  Al2  1  0.13710700  0.53977700  0.00738700  1
  Al  Al3  1  0.14796300  0.54565300  0.67133900  1
  Si  Si4  1  0.94100600  0.92786500  0.66278200  1
  Si  Si5  1  0.92775000  0.92455400  0.33413000  1
  Si  Si6  1  0.44198800  0.92520200  0.16241600  1
  Si  Si7  1  0.42623600  0.92574700  0.83422300  1
  H  H8  1  0.79517200  0.69005000  0.93955300  1
  H  H9  1  0.87955100  0.28801700  0.82849500  1
  H  H10  1  0.89927400  0.29274600  0.49621400  1
  H  H11  1  0.88817900  0.28631800  0.18331200  1
  H  H12  1  0.30439700  0.70468700  0.44219700  1
  H  H13  1  0.38341500  0.28590700  0.33241800  1
  H  H14  1  0.38623600  0.28514500  0.00177600  1
  H  H15  1  0.39493900  0.29272100  0.68607100  1
  O  O16  1  0.88971300  0.70486000  0.64796700  1
  O  O17  1  0.81548700  0.70183600  0.33816900  1
  O  O18  1  0.93949600  0.02075400  0.50074600  1
  O  O19  1  0.72762100  0.99784100  0.76855600  1
  O  O20  1  0.73670000  0.01895000  0.23559500  1
  O  O21  1  0.38733900  0.70198600  0.14758500  1
  O  O22  1  0.31642300  0.70288000  0.83878300  1
  O  O23  1  0.43766600  0.01999800  0.00160600  1
  O  O24  1  0.23043000  0.99464400  0.26997000  1
  O  O25  1  0.23421000  0.02147200  0.73763400  1
  O  O26  1  0.88730300  0.69013800  0.03296100  1
  O  O27  1  0.98386000  0.41589000  0.83431400  1
  O  O28  1  0.90316500  0.41786500  0.53014600  1
  O  O29  1  0.89596600  0.40590700  0.14208900  1
  O  O30  1  0.39354600  0.69553100  0.53479000  1
  O  O31  1  0.48370400  0.41478200  0.33595000  1
  O  O32  1  0.39761400  0.41316200  0.03087700  1
  O  O33  1  0.40047300  0.41058100  0.64261300  1
