# generated using pymatgen
data_Ge4PbO9
_symmetry_space_group_name_H-M   'P 1'
_cell_length_a   11.55886995
_cell_length_b   11.55886995
_cell_length_c   4.82870600
_cell_angle_alpha   90.00000000
_cell_angle_beta   90.00000000
_cell_angle_gamma   119.99999971
_symmetry_Int_Tables_number   1
_chemical_formula_structural   Ge4PbO9
_chemical_formula_sum   'Ge12 Pb3 O27'
_cell_volume   558.71734203
_cell_formula_units_Z   3
loop_
 _symmetry_equiv_pos_site_id
 _symmetry_equiv_pos_as_xyz
  1  'x, y, z'
loop_
 _atom_site_type_symbol
 _atom_site_label
 _atom_site_symmetry_multiplicity
 _atom_site_fract_x
 _atom_site_fract_y
 _atom_site_fract_z
 _atom_site_occupancy
  Ge  Ge0  1  0.14917700  0.49058600  0.39837700  1
  Ge  Ge1  1  0.50941400  0.65859000  0.39837700  1
  Ge  Ge2  1  0.34141000  0.85082300  0.39837700  1
  Ge  Ge3  1  0.65859000  0.50941400  0.60162300  1
  Ge  Ge4  1  0.85082300  0.34141000  0.60162300  1
  Ge  Ge5  1  0.49058600  0.14917700  0.60162300  1
  Ge  Ge6  1  0.18029900  0.00000000  0.50000000  1
  Ge  Ge7  1  0.00000000  0.18029900  0.50000000  1
  Ge  Ge8  1  0.81970100  0.81970100  0.50000000  1
  Ge  Ge9  1  0.33333300  0.66666700  0.88838300  1
  Ge  Ge10  1  0.66666700  0.33333300  0.11161700  1
  Ge  Ge11  1  0.00000000  0.00000000  0.00000000  1
  Pb  Pb12  1  0.67388800  0.00000000  0.00000000  1
  Pb  Pb13  1  0.00000000  0.67388800  0.00000000  1
  Pb  Pb14  1  0.32611200  0.32611200  0.00000000  1
  O  O15  1  0.09375200  0.15435900  0.76228800  1
  O  O16  1  0.84564100  0.93939300  0.76228800  1
  O  O17  1  0.06060700  0.90624800  0.76228800  1
  O  O18  1  0.93939300  0.84564100  0.23771200  1
  O  O19  1  0.90624800  0.06060700  0.23771200  1
  O  O20  1  0.15435900  0.09375200  0.23771200  1
  O  O21  1  0.10860400  0.32488200  0.29299900  1
  O  O22  1  0.67511800  0.78372200  0.29299900  1
  O  O23  1  0.21627800  0.89139600  0.29299900  1
  O  O24  1  0.78372200  0.67511800  0.70700100  1
  O  O25  1  0.89139600  0.21627800  0.70700100  1
  O  O26  1  0.32488200  0.10860400  0.70700100  1
  O  O27  1  0.26215700  0.51126000  0.66592200  1
  O  O28  1  0.48874000  0.75089800  0.66592200  1
  O  O29  1  0.24910200  0.73784300  0.66592200  1
  O  O30  1  0.75089800  0.48874000  0.33407800  1
  O  O31  1  0.73784300  0.24910200  0.33407800  1
  O  O32  1  0.51126000  0.26215700  0.33407800  1
  O  O33  1  0.17952500  0.60064200  0.11782700  1
  O  O34  1  0.39935800  0.57888300  0.11782700  1
  O  O35  1  0.42111700  0.82047500  0.11782700  1
  O  O36  1  0.57888300  0.39935800  0.88217300  1
  O  O37  1  0.82047500  0.42111700  0.88217300  1
  O  O38  1  0.60064200  0.17952500  0.88217300  1
  O  O39  1  0.48823900  0.00000000  0.50000000  1
  O  O40  1  0.00000000  0.48823900  0.50000000  1
  O  O41  1  0.51176100  0.51176100  0.50000000  1
