# generated using pymatgen
data_NbTl(PO4)2
_symmetry_space_group_name_H-M   'P 1'
_cell_length_a   13.06216800
_cell_length_b   5.13788600
_cell_length_c   12.20817316
_cell_angle_alpha   68.94619487
_cell_angle_beta   90.00000000
_cell_angle_gamma   90.00000000
_symmetry_Int_Tables_number   1
_chemical_formula_structural   NbTl(PO4)2
_chemical_formula_sum   'Nb4 Tl4 P8 O32'
_cell_volume   764.61950776
_cell_formula_units_Z   4
loop_
 _symmetry_equiv_pos_site_id
 _symmetry_equiv_pos_as_xyz
  1  'x, y, z'
loop_
 _atom_site_type_symbol
 _atom_site_label
 _atom_site_symmetry_multiplicity
 _atom_site_fract_x
 _atom_site_fract_y
 _atom_site_fract_z
 _atom_site_occupancy
  Nb  Nb0  1  0.07231300  0.09486400  0.20276400  1
  Nb  Nb1  1  0.57231300  0.90513600  0.29723600  1
  Nb  Nb2  1  0.92768700  0.90513600  0.79723600  1
  Nb  Nb3  1  0.42768700  0.09486400  0.70276400  1
  Tl  Tl4  1  0.38197000  0.25773500  0.02330200  1
  Tl  Tl5  1  0.88197000  0.74226500  0.47669800  1
  Tl  Tl6  1  0.61803000  0.74226500  0.97669800  1
  Tl  Tl7  1  0.11803000  0.25773500  0.52330200  1
  P  P8  1  0.25022700  0.58196800  0.70923400  1
  P  P9  1  0.75022700  0.41803200  0.79076600  1
  P  P10  1  0.74977300  0.41803200  0.29076600  1
  P  P11  1  0.24977300  0.58196800  0.20923400  1
  P  P12  1  0.08735900  0.31095700  0.88640100  1
  P  P13  1  0.58735900  0.68904300  0.61359900  1
  P  P14  1  0.91264100  0.68904300  0.11359900  1
  P  P15  1  0.41264100  0.31095700  0.38640100  1
  O  O16  1  0.10220000  0.13726000  0.01404000  1
  O  O17  1  0.60220000  0.86274000  0.48596000  1
  O  O18  1  0.89780000  0.86274000  0.98596000  1
  O  O19  1  0.39780000  0.13726000  0.51404000  1
  O  O20  1  0.54952500  0.85161000  0.69065900  1
  O  O21  1  0.04952500  0.14839000  0.80934100  1
  O  O22  1  0.45047500  0.14839000  0.30934100  1
  O  O23  1  0.95047500  0.85161000  0.19065900  1
  O  O24  1  0.33437300  0.75743600  0.73860400  1
  O  O25  1  0.83437300  0.24256400  0.76139600  1
  O  O26  1  0.66562700  0.24256400  0.26139600  1
  O  O27  1  0.16562700  0.75743600  0.23860400  1
  O  O28  1  0.29948200  0.42196500  0.33912400  1
  O  O29  1  0.79948200  0.57803500  0.16087600  1
  O  O30  1  0.70051800  0.57803500  0.66087600  1
  O  O31  1  0.20051800  0.42196500  0.83912400  1
  O  O32  1  0.98135700  0.43316900  0.13388700  1
  O  O33  1  0.48135700  0.56683100  0.36611300  1
  O  O34  1  0.01864300  0.56683100  0.86611300  1
  O  O35  1  0.51864300  0.43316900  0.63388700  1
  O  O36  1  0.17022700  0.73708700  0.62325300  1
  O  O37  1  0.67022700  0.26291300  0.87674700  1
  O  O38  1  0.82977300  0.26291300  0.37674700  1
  O  O39  1  0.32977300  0.73708700  0.12325300  1
  O  O40  1  0.05172100  0.04764200  0.35195000  1
  O  O41  1  0.55172100  0.95235800  0.14805000  1
  O  O42  1  0.94827900  0.95235800  0.64805000  1
  O  O43  1  0.44827900  0.04764200  0.85195000  1
  O  O44  1  0.19854000  0.34646000  0.17694700  1
  O  O45  1  0.69854000  0.65354000  0.32305300  1
  O  O46  1  0.80146000  0.65354000  0.82305300  1
  O  O47  1  0.30146000  0.34646000  0.67694700  1
