# generated using pymatgen
data_Hg7(P2Br3)2
_symmetry_space_group_name_H-M   'P 1'
_cell_length_a   20.28818400
_cell_length_b   6.19073600
_cell_length_c   7.73959486
_cell_angle_alpha   76.14638383
_cell_angle_beta   90.00000000
_cell_angle_gamma   90.00000000
_symmetry_Int_Tables_number   1
_chemical_formula_structural   Hg7(P2Br3)2
_chemical_formula_sum   'Hg14 P8 Br12'
_cell_volume   943.80646350
_cell_formula_units_Z   2
loop_
 _symmetry_equiv_pos_site_id
 _symmetry_equiv_pos_as_xyz
  1  'x, y, z'
loop_
 _atom_site_type_symbol
 _atom_site_label
 _atom_site_symmetry_multiplicity
 _atom_site_fract_x
 _atom_site_fract_y
 _atom_site_fract_z
 _atom_site_occupancy
  Hg  Hg0  1  0.00000000  0.00000000  0.00000000  1
  Hg  Hg1  1  0.50000000  0.00000000  0.50000000  1
  Hg  Hg2  1  0.86271700  0.49245500  0.92142600  1
  Hg  Hg3  1  0.36271700  0.50754500  0.57857400  1
  Hg  Hg4  1  0.13728300  0.50754500  0.07857400  1
  Hg  Hg5  1  0.63728300  0.49245500  0.42142600  1
  Hg  Hg6  1  0.76786700  0.90961000  0.18816000  1
  Hg  Hg7  1  0.26786700  0.09039000  0.31184000  1
  Hg  Hg8  1  0.23213300  0.09039000  0.81184000  1
  Hg  Hg9  1  0.73213300  0.90961000  0.68816000  1
  Hg  Hg10  1  0.91163200  0.21711100  0.50876000  1
  Hg  Hg11  1  0.41163200  0.78288900  0.99124000  1
  Hg  Hg12  1  0.08836800  0.78288900  0.49124000  1
  Hg  Hg13  1  0.58836800  0.21711100  0.00876000  1
  P  P14  1  0.89741000  0.14242400  0.83591800  1
  P  P15  1  0.39741000  0.85757600  0.66408200  1
  P  P16  1  0.10259000  0.85757600  0.16408200  1
  P  P17  1  0.60259000  0.14242400  0.33591800  1
  P  P18  1  0.82241500  0.87718000  0.90981400  1
  P  P19  1  0.32241500  0.12282000  0.59018600  1
  P  P20  1  0.17758500  0.12282000  0.09018600  1
  P  P21  1  0.67758500  0.87718000  0.40981400  1
  Br  Br22  1  0.97978700  0.39930400  0.22189300  1
  Br  Br23  1  0.47978700  0.60069600  0.27810700  1
  Br  Br24  1  0.02021300  0.60069600  0.77810700  1
  Br  Br25  1  0.52021300  0.39930400  0.72189300  1
  Br  Br26  1  0.78847500  0.36215500  0.29429700  1
  Br  Br27  1  0.28847500  0.63784500  0.20570300  1
  Br  Br28  1  0.21152500  0.63784500  0.70570300  1
  Br  Br29  1  0.71152500  0.36215500  0.79429700  1
  Br  Br30  1  0.88770700  0.81413900  0.41801900  1
  Br  Br31  1  0.38770700  0.18586100  0.08198100  1
  Br  Br32  1  0.11229300  0.18586100  0.58198100  1
  Br  Br33  1  0.61229300  0.81413900  0.91801900  1
