# generated using pymatgen
data_Ca2SiH2O5
_symmetry_space_group_name_H-M   'P 1'
_cell_length_a   9.25271300
_cell_length_b   9.55352700
_cell_length_c   10.78945400
_cell_angle_alpha   90.00000000
_cell_angle_beta   90.00000000
_cell_angle_gamma   90.00000000
_symmetry_Int_Tables_number   1
_chemical_formula_structural   Ca2SiH2O5
_chemical_formula_sum   'Ca16 Si8 H16 O40'
_cell_volume   953.74504479
_cell_formula_units_Z   8
loop_
 _symmetry_equiv_pos_site_id
 _symmetry_equiv_pos_as_xyz
  1  'x, y, z'
loop_
 _atom_site_type_symbol
 _atom_site_label
 _atom_site_symmetry_multiplicity
 _atom_site_fract_x
 _atom_site_fract_y
 _atom_site_fract_z
 _atom_site_occupancy
  Ca  Ca0  1  0.83144600  0.51705000  0.06968800  1
  Ca  Ca1  1  0.33144600  0.48295000  0.43031200  1
  Ca  Ca2  1  0.66855400  0.01705000  0.93031200  1
  Ca  Ca3  1  0.16855400  0.98295000  0.56968800  1
  Ca  Ca4  1  0.16855400  0.48295000  0.93031200  1
  Ca  Ca5  1  0.66855400  0.51705000  0.56968800  1
  Ca  Ca6  1  0.33144600  0.98295000  0.06968800  1
  Ca  Ca7  1  0.83144600  0.01705000  0.43031200  1
  Ca  Ca8  1  0.99528400  0.65405100  0.38786200  1
  Ca  Ca9  1  0.49528400  0.34594900  0.11213800  1
  Ca  Ca10  1  0.50471600  0.15405100  0.61213800  1
  Ca  Ca11  1  0.00471600  0.84594900  0.88786200  1
  Ca  Ca12  1  0.00471600  0.34594900  0.61213800  1
  Ca  Ca13  1  0.50471600  0.65405100  0.88786200  1
  Ca  Ca14  1  0.49528400  0.84594900  0.38786200  1
  Ca  Ca15  1  0.99528400  0.15405100  0.11213800  1
  Si  Si16  1  0.78629300  0.83206800  0.15926800  1
  Si  Si17  1  0.28629300  0.16793200  0.34073200  1
  Si  Si18  1  0.71370700  0.33206800  0.84073200  1
  Si  Si19  1  0.21370700  0.66793200  0.65926800  1
  Si  Si20  1  0.21370700  0.16793200  0.84073200  1
  Si  Si21  1  0.71370700  0.83206800  0.65926800  1
  Si  Si22  1  0.28629300  0.66793200  0.15926800  1
  Si  Si23  1  0.78629300  0.33206800  0.34073200  1
  H  H24  1  0.55744200  0.76059800  0.12240100  1
  H  H25  1  0.05744200  0.23940200  0.37759900  1
  H  H26  1  0.94255800  0.26059800  0.87759900  1
  H  H27  1  0.44255800  0.73940200  0.62240100  1
  H  H28  1  0.44255800  0.23940200  0.87759900  1
  H  H29  1  0.94255800  0.76059800  0.62240100  1
  H  H30  1  0.05744200  0.73940200  0.12240100  1
  H  H31  1  0.55744200  0.26059800  0.37759900  1
  H  H32  1  0.60032700  0.57223000  0.32561300  1
  H  H33  1  0.10032700  0.42777000  0.17438700  1
  H  H34  1  0.89967300  0.07223000  0.67438700  1
  H  H35  1  0.39967300  0.92777000  0.82561300  1
  H  H36  1  0.39967300  0.42777000  0.67438700  1
  H  H37  1  0.89967300  0.57223000  0.82561300  1
  H  H38  1  0.10032700  0.92777000  0.32561300  1
  H  H39  1  0.60032700  0.07223000  0.17438700  1
  O  O40  1  0.86017200  0.94570000  0.06385700  1
  O  O41  1  0.36017200  0.05430000  0.43614300  1
  O  O42  1  0.63982800  0.44570000  0.93614300  1
  O  O43  1  0.13982800  0.55430000  0.56385700  1
  O  O44  1  0.13982800  0.05430000  0.93614300  1
  O  O45  1  0.63982800  0.94570000  0.56385700  1
  O  O46  1  0.36017200  0.55430000  0.06385700  1
  O  O47  1  0.86017200  0.44570000  0.43614300  1
  O  O48  1  0.65253400  0.75054800  0.07481400  1
  O  O49  1  0.15253400  0.24945200  0.42518600  1
  O  O50  1  0.84746600  0.25054800  0.92518600  1
  O  O51  1  0.34746600  0.74945200  0.57481400  1
  O  O52  1  0.34746600  0.24945200  0.92518600  1
  O  O53  1  0.84746600  0.75054800  0.57481400  1
  O  O54  1  0.15253400  0.74945200  0.07481400  1
  O  O55  1  0.65253400  0.25054800  0.42518600  1
  O  O56  1  0.90216800  0.70698200  0.19069900  1
  O  O57  1  0.40216800  0.29301800  0.30930100  1
  O  O58  1  0.59783200  0.20698200  0.80930100  1
  O  O59  1  0.09783200  0.79301800  0.69069900  1
  O  O60  1  0.09783200  0.29301800  0.80930100  1
  O  O61  1  0.59783200  0.70698200  0.69069900  1
  O  O62  1  0.40216800  0.79301800  0.19069900  1
  O  O63  1  0.90216800  0.20698200  0.30930100  1
  O  O64  1  0.70719000  0.90097200  0.27920800  1
  O  O65  1  0.20719000  0.09902800  0.22079200  1
  O  O66  1  0.79281000  0.40097200  0.72079200  1
  O  O67  1  0.29281000  0.59902800  0.77920800  1
  O  O68  1  0.29281000  0.09902800  0.72079200  1
  O  O69  1  0.79281000  0.90097200  0.77920800  1
  O  O70  1  0.20719000  0.59902800  0.27920800  1
  O  O71  1  0.70719000  0.40097200  0.22079200  1
  O  O72  1  0.54718400  0.60724200  0.39761900  1
  O  O73  1  0.04718400  0.39275800  0.10238100  1
  O  O74  1  0.95281600  0.10724200  0.60238100  1
  O  O75  1  0.45281600  0.89275800  0.89761900  1
  O  O76  1  0.45281600  0.39275800  0.60238100  1
  O  O77  1  0.95281600  0.60724200  0.89761900  1
  O  O78  1  0.04718400  0.89275800  0.39761900  1
  O  O79  1  0.54718400  0.10724200  0.10238100  1
