# generated using pymatgen
data_KSO3
_symmetry_space_group_name_H-M   'P 1'
_cell_length_a   9.92184404
_cell_length_b   9.92184404
_cell_length_c   6.44451900
_cell_angle_alpha   90.00000000
_cell_angle_beta   90.00000000
_cell_angle_gamma   120.00000025
_symmetry_Int_Tables_number   1
_chemical_formula_structural   KSO3
_chemical_formula_sum   'K6 S6 O18'
_cell_volume   549.42185531
_cell_formula_units_Z   6
loop_
 _symmetry_equiv_pos_site_id
 _symmetry_equiv_pos_as_xyz
  1  'x, y, z'
loop_
 _atom_site_type_symbol
 _atom_site_label
 _atom_site_symmetry_multiplicity
 _atom_site_fract_x
 _atom_site_fract_y
 _atom_site_fract_z
 _atom_site_occupancy
  K  K0  1  0.62015400  0.00000000  0.00000000  1
  K  K1  1  0.00000000  0.62015400  0.00000000  1
  K  K2  1  0.37984600  0.37984600  0.00000000  1
  K  K3  1  0.29548400  0.00000000  0.50000000  1
  K  K4  1  0.00000000  0.29548400  0.50000000  1
  K  K5  1  0.70451600  0.70451600  0.50000000  1
  S  S6  1  0.00000000  0.00000000  0.82621600  1
  S  S7  1  0.00000000  0.00000000  0.17378400  1
  S  S8  1  0.33333300  0.66666700  0.74039800  1
  S  S9  1  0.66666700  0.33333300  0.25960200  1
  S  S10  1  0.33333300  0.66666700  0.39618900  1
  S  S11  1  0.66666700  0.33333300  0.60381100  1
  O  O12  1  0.15700700  0.12373900  0.76741000  1
  O  O13  1  0.87626100  0.03326700  0.76741000  1
  O  O14  1  0.96673300  0.84299300  0.76741000  1
  O  O15  1  0.03326700  0.87626100  0.23259000  1
  O  O16  1  0.84299300  0.96673300  0.23259000  1
  O  O17  1  0.12373900  0.15700700  0.23259000  1
  O  O18  1  0.20484400  0.51179500  0.79998500  1
  O  O19  1  0.48820500  0.69304900  0.79998500  1
  O  O20  1  0.30695100  0.79515600  0.79998500  1
  O  O21  1  0.69304900  0.48820500  0.20001500  1
  O  O22  1  0.79515600  0.30695100  0.20001500  1
  O  O23  1  0.51179500  0.20484400  0.20001500  1
  O  O24  1  0.17198500  0.62019100  0.34322500  1
  O  O25  1  0.37980900  0.55179300  0.34322500  1
  O  O26  1  0.44820700  0.82801500  0.34322500  1
  O  O27  1  0.55179300  0.37980900  0.65677500  1
  O  O28  1  0.82801500  0.44820700  0.65677500  1
  O  O29  1  0.62019100  0.17198500  0.65677500  1
