# generated using pymatgen
data_KEr(PO3)4
_symmetry_space_group_name_H-M   'P 1'
_cell_length_a   8.93721100
_cell_length_b   10.38235900
_cell_length_c   12.76954218
_cell_angle_alpha   55.12901139
_cell_angle_beta   90.00000000
_cell_angle_gamma   90.00000000
_symmetry_Int_Tables_number   1
_chemical_formula_structural   KEr(PO3)4
_chemical_formula_sum   'K4 Er4 P16 O48'
_cell_volume   972.12247968
_cell_formula_units_Z   4
loop_
 _symmetry_equiv_pos_site_id
 _symmetry_equiv_pos_as_xyz
  1  'x, y, z'
loop_
 _atom_site_type_symbol
 _atom_site_label
 _atom_site_symmetry_multiplicity
 _atom_site_fract_x
 _atom_site_fract_y
 _atom_site_fract_z
 _atom_site_occupancy
  K  K0  1  0.56724800  0.74565900  0.95872800  1
  K  K1  1  0.06724800  0.25434100  0.54127200  1
  K  K2  1  0.43275200  0.25434100  0.04127200  1
  K  K3  1  0.93275200  0.74565900  0.45872800  1
  Er  Er4  1  0.27240400  0.81523600  0.68412300  1
  Er  Er5  1  0.77240400  0.18476400  0.81587700  1
  Er  Er6  1  0.72759600  0.18476400  0.31587700  1
  Er  Er7  1  0.22759600  0.81523600  0.18412300  1
  P  P8  1  0.38856600  0.69854500  0.47820200  1
  P  P9  1  0.88856600  0.30145500  0.02179800  1
  P  P10  1  0.61143400  0.30145500  0.52179800  1
  P  P11  1  0.11143400  0.69854500  0.97820200  1
  P  P12  1  0.59241200  0.88992000  0.25817900  1
  P  P13  1  0.09241200  0.11008000  0.24182100  1
  P  P14  1  0.40758800  0.11008000  0.74182100  1
  P  P15  1  0.90758800  0.88992000  0.75817900  1
  P  P16  1  0.52288100  0.52094600  0.72638900  1
  P  P17  1  0.02288100  0.47905400  0.77361100  1
  P  P18  1  0.47711900  0.47905400  0.27361100  1
  P  P19  1  0.97711900  0.52094600  0.22638900  1
  P  P20  1  0.66927700  0.82242900  0.63676000  1
  P  P21  1  0.16927700  0.17757100  0.86324000  1
  P  P22  1  0.33072300  0.17757100  0.36324000  1
  P  P23  1  0.83072300  0.82242900  0.13676000  1
  O  O24  1  0.33242400  0.79817700  0.52004000  1
  O  O25  1  0.83242400  0.20182300  0.97996000  1
  O  O26  1  0.66757600  0.20182300  0.47996000  1
  O  O27  1  0.16757600  0.79817700  0.02004000  1
  O  O28  1  0.44992000  0.53581100  0.60314600  1
  O  O29  1  0.94992000  0.46418900  0.89685400  1
  O  O30  1  0.55008000  0.46418900  0.39685400  1
  O  O31  1  0.05008000  0.53581100  0.10314600  1
  O  O32  1  0.65619600  0.65083700  0.66220200  1
  O  O33  1  0.15619600  0.34916300  0.83779800  1
  O  O34  1  0.34380400  0.34916300  0.33779800  1
  O  O35  1  0.84380400  0.65083700  0.16220200  1
  O  O36  1  0.41198700  0.56622400  0.78880500  1
  O  O37  1  0.91198700  0.43377600  0.71119500  1
  O  O38  1  0.58801300  0.43377600  0.21119500  1
  O  O39  1  0.08801300  0.56622400  0.28880500  1
  O  O40  1  0.28638400  0.66491700  0.40326100  1
  O  O41  1  0.78638400  0.33508300  0.09673900  1
  O  O42  1  0.71361600  0.33508300  0.59673900  1
  O  O43  1  0.21361600  0.66491700  0.90326100  1
  O  O44  1  0.45943200  0.92705000  0.17335700  1
  O  O45  1  0.95943200  0.07295000  0.32664300  1
  O  O46  1  0.54056800  0.07295000  0.82664300  1
  O  O47  1  0.04056800  0.92705000  0.67335700  1
  O  O48  1  0.70979300  0.77853200  0.24745000  1
  O  O49  1  0.20979300  0.22146800  0.25255000  1
  O  O50  1  0.29020700  0.22146800  0.75255000  1
  O  O51  1  0.79020700  0.77853200  0.74745000  1
  O  O52  1  0.32225300  0.97665600  0.75653200  1
  O  O53  1  0.82225300  0.02334400  0.74346800  1
  O  O54  1  0.67774700  0.02334400  0.24346800  1
  O  O55  1  0.17774700  0.97665600  0.25653200  1
  O  O56  1  0.52620600  0.86489400  0.67154300  1
  O  O57  1  0.02620600  0.13510600  0.82845700  1
  O  O58  1  0.47379400  0.13510600  0.32845700  1
  O  O59  1  0.97379400  0.86489400  0.17154300  1
  O  O60  1  0.54715600  0.76705000  0.40500600  1
  O  O61  1  0.04715600  0.23295000  0.09499400  1
  O  O62  1  0.45284400  0.23295000  0.59499400  1
  O  O63  1  0.95284400  0.76705000  0.90500600  1
  O  O64  1  0.40863100  0.63925700  0.19239900  1
  O  O65  1  0.90863100  0.36074300  0.30760100  1
  O  O66  1  0.59136900  0.36074300  0.80760100  1
  O  O67  1  0.09136900  0.63925700  0.69239900  1
  O  O68  1  0.73888200  0.92788000  0.50761800  1
  O  O69  1  0.23888200  0.07212000  0.99238200  1
  O  O70  1  0.26111800  0.07212000  0.49238200  1
  O  O71  1  0.76111800  0.92788000  0.00761800  1
