# generated using pymatgen
data_ReSbOF9
_symmetry_space_group_name_H-M   'P 1'
_cell_length_a   10.47959800
_cell_length_b   5.78464000
_cell_length_c   12.97801360
_cell_angle_alpha   80.70825639
_cell_angle_beta   90.00000000
_cell_angle_gamma   90.00000000
_symmetry_Int_Tables_number   1
_chemical_formula_structural   ReSbOF9
_chemical_formula_sum   'Re4 Sb4 O4 F36'
_cell_volume   776.41352012
_cell_formula_units_Z   4
loop_
 _symmetry_equiv_pos_site_id
 _symmetry_equiv_pos_as_xyz
  1  'x, y, z'
loop_
 _atom_site_type_symbol
 _atom_site_label
 _atom_site_symmetry_multiplicity
 _atom_site_fract_x
 _atom_site_fract_y
 _atom_site_fract_z
 _atom_site_occupancy
  Re  Re0  1  0.97624700  0.67630800  0.20340700  1
  Re  Re1  1  0.47624700  0.32369200  0.29659300  1
  Re  Re2  1  0.02375300  0.32369200  0.79659300  1
  Re  Re3  1  0.52375300  0.67630800  0.70340700  1
  Sb  Sb4  1  0.74491800  0.01695600  0.00171500  1
  Sb  Sb5  1  0.24491800  0.98304400  0.49828500  1
  Sb  Sb6  1  0.25508200  0.98304400  0.99828500  1
  Sb  Sb7  1  0.75508200  0.01695600  0.50171500  1
  O  O8  1  0.84810500  0.51770700  0.24749300  1
  O  O9  1  0.34810500  0.48229300  0.25250700  1
  O  O10  1  0.15189500  0.48229300  0.75250700  1
  O  O11  1  0.65189500  0.51770700  0.74749300  1
  F  F12  1  0.90439700  0.80712800  0.05932800  1
  F  F13  1  0.40439700  0.19287200  0.44067200  1
  F  F14  1  0.09560300  0.19287200  0.94067200  1
  F  F15  1  0.59560300  0.80712800  0.55932800  1
  F  F16  1  0.94632500  0.97488400  0.23741200  1
  F  F17  1  0.44632500  0.02511600  0.26258800  1
  F  F18  1  0.05367500  0.02511600  0.76258800  1
  F  F19  1  0.55367500  0.97488400  0.73741200  1
  F  F20  1  0.85402000  0.09351800  0.87672200  1
  F  F21  1  0.35402000  0.90648200  0.62327800  1
  F  F22  1  0.14598000  0.90648200  0.12327800  1
  F  F23  1  0.64598000  0.09351800  0.37672200  1
  F  F24  1  0.07106700  0.46744500  0.13706700  1
  F  F25  1  0.57106700  0.53255500  0.36293300  1
  F  F26  1  0.92893300  0.53255500  0.86293300  1
  F  F27  1  0.42893300  0.46744500  0.63706700  1
  F  F28  1  0.83035500  0.26010800  0.05488600  1
  F  F29  1  0.33035500  0.73989200  0.44511400  1
  F  F30  1  0.16964500  0.73989200  0.94511400  1
  F  F31  1  0.66964500  0.26010800  0.55488600  1
  F  F32  1  0.60719500  0.20399900  0.94460700  1
  F  F33  1  0.10719500  0.79600100  0.55539300  1
  F  F34  1  0.39280500  0.79600100  0.05539300  1
  F  F35  1  0.89280500  0.20399900  0.44460700  1
  F  F36  1  0.08693400  0.61654800  0.31658000  1
  F  F37  1  0.58693400  0.38345200  0.18342000  1
  F  F38  1  0.91306600  0.38345200  0.68342000  1
  F  F39  1  0.41306600  0.61654800  0.81658000  1
  F  F40  1  0.67279100  0.90267100  0.13368500  1
  F  F41  1  0.17279100  0.09732900  0.36631500  1
  F  F42  1  0.32720900  0.09732900  0.86631500  1
  F  F43  1  0.82720900  0.90267100  0.63368500  1
  F  F44  1  0.69394900  0.74967500  0.94605500  1
  F  F45  1  0.19394900  0.25032500  0.55394500  1
  F  F46  1  0.30605100  0.25032500  0.05394500  1
  F  F47  1  0.80605100  0.74967500  0.44605500  1
