# generated using pymatgen
data_Na2In2Sb3
_symmetry_space_group_name_H-M   'P 1'
_cell_length_a   7.68755700
_cell_length_b   14.83001200
_cell_length_c   15.84302412
_cell_angle_alpha   89.99286109
_cell_angle_beta   90.00000000
_cell_angle_gamma   90.00000000
_symmetry_Int_Tables_number   1
_chemical_formula_structural   Na2In2Sb3
_chemical_formula_sum   'Na16 In16 Sb24'
_cell_volume   1806.20870681
_cell_formula_units_Z   8
loop_
 _symmetry_equiv_pos_site_id
 _symmetry_equiv_pos_as_xyz
  1  'x, y, z'
loop_
 _atom_site_type_symbol
 _atom_site_label
 _atom_site_symmetry_multiplicity
 _atom_site_fract_x
 _atom_site_fract_y
 _atom_site_fract_z
 _atom_site_occupancy
  Na  Na0  1  0.04681700  0.85852200  0.01255200  1
  Na  Na1  1  0.54681700  0.14147800  0.48744800  1
  Na  Na2  1  0.95318300  0.14147800  0.98744800  1
  Na  Na3  1  0.45318300  0.85852200  0.51255200  1
  Na  Na4  1  0.42488900  0.34095300  0.97502600  1
  Na  Na5  1  0.92488900  0.65904700  0.52497400  1
  Na  Na6  1  0.57511100  0.65904700  0.02497400  1
  Na  Na7  1  0.07511100  0.34095300  0.47502600  1
  Na  Na8  1  0.45240400  0.08138900  0.88414300  1
  Na  Na9  1  0.95240400  0.91861100  0.61585700  1
  Na  Na10  1  0.54759600  0.91861100  0.11585700  1
  Na  Na11  1  0.04759600  0.08138900  0.38414300  1
  Na  Na12  1  0.09054300  0.56133400  0.08840400  1
  Na  Na13  1  0.59054300  0.43866600  0.41159600  1
  Na  Na14  1  0.90945700  0.43866600  0.91159600  1
  Na  Na15  1  0.40945700  0.56133400  0.58840400  1
  In  In16  1  0.71433600  0.31961700  0.15074600  1
  In  In17  1  0.21433600  0.68038300  0.34925400  1
  In  In18  1  0.28566400  0.68038300  0.84925400  1
  In  In19  1  0.78566400  0.31961700  0.65074600  1
  In  In20  1  0.21597200  0.90779400  0.27301800  1
  In  In21  1  0.71597200  0.09220600  0.22698200  1
  In  In22  1  0.78402800  0.09220600  0.72698200  1
  In  In23  1  0.28402800  0.90779400  0.77301800  1
  In  In24  1  0.24081700  0.18477500  0.16235300  1
  In  In25  1  0.74081700  0.81522500  0.33764700  1
  In  In26  1  0.75918300  0.81522500  0.83764700  1
  In  In27  1  0.25918300  0.18477500  0.66235300  1
  In  In28  1  0.23116000  0.41354300  0.24140200  1
  In  In29  1  0.73116000  0.58645700  0.25859800  1
  In  In30  1  0.76884000  0.58645700  0.75859800  1
  In  In31  1  0.26884000  0.41354300  0.74140200  1
  Sb  Sb32  1  0.03260300  0.02281300  0.15801300  1
  Sb  Sb33  1  0.53260300  0.97718700  0.34198700  1
  Sb  Sb34  1  0.96739700  0.97718700  0.84198700  1
  Sb  Sb35  1  0.46739700  0.02281300  0.65801300  1
  Sb  Sb36  1  0.55644300  0.15489900  0.07054600  1
  Sb  Sb37  1  0.05644300  0.84510100  0.42945400  1
  Sb  Sb38  1  0.44355700  0.84510100  0.92945400  1
  Sb  Sb39  1  0.94355700  0.15489900  0.57054600  1
  Sb  Sb40  1  0.05936900  0.34326500  0.08780900  1
  Sb  Sb41  1  0.55936900  0.65673500  0.41219100  1
  Sb  Sb42  1  0.94063100  0.65673500  0.91219100  1
  Sb  Sb43  1  0.44063100  0.34326500  0.58780900  1
  Sb  Sb44  1  0.16152700  0.24820300  0.83076400  1
  Sb  Sb45  1  0.66152700  0.75179700  0.66923600  1
  Sb  Sb46  1  0.83847300  0.75179700  0.16923600  1
  Sb  Sb47  1  0.33847300  0.24820300  0.33076400  1
  Sb  Sb48  1  0.51475100  0.48561800  0.14425000  1
  Sb  Sb49  1  0.01475100  0.51438200  0.35575000  1
  Sb  Sb50  1  0.48524900  0.51438200  0.85575000  1
  Sb  Sb51  1  0.98524900  0.48561800  0.64425000  1
  Sb  Sb52  1  0.78366900  0.25820600  0.82432700  1
  Sb  Sb53  1  0.28366900  0.74179400  0.67567300  1
  Sb  Sb54  1  0.21633100  0.74179400  0.17567300  1
  Sb  Sb55  1  0.71633100  0.25820600  0.32432700  1
