# generated using pymatgen
data_Pr2SiTeO4
_symmetry_space_group_name_H-M   'P 1'
_cell_length_a   6.52553200
_cell_length_b   8.83588100
_cell_length_c   10.01812450
_cell_angle_alpha   85.19682070
_cell_angle_beta   90.00000000
_cell_angle_gamma   90.00000000
_symmetry_Int_Tables_number   1
_chemical_formula_structural   Pr2SiTeO4
_chemical_formula_sum   'Pr8 Si4 Te4 O16'
_cell_volume   575.60475557
_cell_formula_units_Z   4
loop_
 _symmetry_equiv_pos_site_id
 _symmetry_equiv_pos_as_xyz
  1  'x, y, z'
loop_
 _atom_site_type_symbol
 _atom_site_label
 _atom_site_symmetry_multiplicity
 _atom_site_fract_x
 _atom_site_fract_y
 _atom_site_fract_z
 _atom_site_occupancy
  Pr  Pr0  1  0.69533900  0.66535500  0.84739300  1
  Pr  Pr1  1  0.19533900  0.83464500  0.15260700  1
  Pr  Pr2  1  0.30466100  0.33464500  0.15260700  1
  Pr  Pr3  1  0.80466100  0.16535500  0.84739300  1
  Pr  Pr4  1  0.15209900  0.80596700  0.60509400  1
  Pr  Pr5  1  0.65209900  0.69403300  0.39490600  1
  Pr  Pr6  1  0.84790100  0.19403300  0.39490600  1
  Pr  Pr7  1  0.34790100  0.30596700  0.60509400  1
  Si  Si8  1  0.69026600  0.94346200  0.62616300  1
  Si  Si9  1  0.19026600  0.55653800  0.37383700  1
  Si  Si10  1  0.30973400  0.05653800  0.37383700  1
  Si  Si11  1  0.80973400  0.44346200  0.62616300  1
  Te  Te12  1  0.21288900  0.61577800  0.90610700  1
  Te  Te13  1  0.71288900  0.88422200  0.09389300  1
  Te  Te14  1  0.78711100  0.38422200  0.09389300  1
  Te  Te15  1  0.28711100  0.11577800  0.90610700  1
  O  O16  1  0.30647600  0.57836100  0.51714800  1
  O  O17  1  0.80647600  0.92163900  0.48285200  1
  O  O18  1  0.69352400  0.42163900  0.48285200  1
  O  O19  1  0.19352400  0.07836100  0.51714800  1
  O  O20  1  0.86672500  0.62385300  0.62612700  1
  O  O21  1  0.36672500  0.87614700  0.37387300  1
  O  O22  1  0.13327500  0.37614700  0.37387300  1
  O  O23  1  0.63327500  0.12385300  0.62612700  1
  O  O24  1  0.51032200  0.81717500  0.65557200  1
  O  O25  1  0.01032200  0.68282500  0.34442800  1
  O  O26  1  0.48967800  0.18282500  0.34442800  1
  O  O27  1  0.98967800  0.31717500  0.65557200  1
  O  O28  1  0.85872300  0.90983000  0.74902800  1
  O  O29  1  0.35872300  0.59017000  0.25097200  1
  O  O30  1  0.14127700  0.09017000  0.25097200  1
  O  O31  1  0.64127700  0.40983000  0.74902800  1
