# generated using pymatgen
data_CrPbO4
_symmetry_space_group_name_H-M   'P 1'
_cell_length_a   5.87403500
_cell_length_b   7.73412600
_cell_length_c   8.30384600
_cell_angle_alpha   90.00000000
_cell_angle_beta   90.00000000
_cell_angle_gamma   90.00000000
_symmetry_Int_Tables_number   1
_chemical_formula_structural   CrPbO4
_chemical_formula_sum   'Cr4 Pb4 O16'
_cell_volume   377.24809840
_cell_formula_units_Z   4
loop_
 _symmetry_equiv_pos_site_id
 _symmetry_equiv_pos_as_xyz
  1  'x, y, z'
loop_
 _atom_site_type_symbol
 _atom_site_label
 _atom_site_symmetry_multiplicity
 _atom_site_fract_x
 _atom_site_fract_y
 _atom_site_fract_z
 _atom_site_occupancy
  Cr  Cr0  1  0.25000000  0.17017900  0.05055300  1
  Cr  Cr1  1  0.75000000  0.67017900  0.44944700  1
  Cr  Cr2  1  0.75000000  0.82982100  0.94944700  1
  Cr  Cr3  1  0.25000000  0.32982100  0.55055300  1
  Pb  Pb4  1  0.25000000  0.70199200  0.20456800  1
  Pb  Pb5  1  0.75000000  0.29800800  0.79543200  1
  Pb  Pb6  1  0.75000000  0.20199200  0.29543200  1
  Pb  Pb7  1  0.25000000  0.79800800  0.70456800  1
  O  O8  1  0.25000000  0.02161900  0.19465200  1
  O  O9  1  0.75000000  0.97838100  0.80534800  1
  O  O10  1  0.75000000  0.52161900  0.30534800  1
  O  O11  1  0.25000000  0.47838100  0.69465200  1
  O  O12  1  0.25000000  0.07790200  0.87224200  1
  O  O13  1  0.75000000  0.92209800  0.12775800  1
  O  O14  1  0.75000000  0.57790200  0.62775800  1
  O  O15  1  0.25000000  0.42209800  0.37224200  1
  O  O16  1  0.01029100  0.28937300  0.06711100  1
  O  O17  1  0.51029100  0.71062700  0.93288900  1
  O  O18  1  0.98970900  0.78937300  0.43288900  1
  O  O19  1  0.48970900  0.21062700  0.56711100  1
  O  O20  1  0.98970900  0.71062700  0.93288900  1
  O  O21  1  0.48970900  0.28937300  0.06711100  1
  O  O22  1  0.01029100  0.21062700  0.56711100  1
  O  O23  1  0.51029100  0.78937300  0.43288900  1
