# generated using pymatgen
data_Sm2O3
_symmetry_space_group_name_H-M   'P 1'
_cell_length_a   3.79640510
_cell_length_b   3.79640510
_cell_length_c   6.01106800
_cell_angle_alpha   90.00000000
_cell_angle_beta   90.00000000
_cell_angle_gamma   119.99998432
_symmetry_Int_Tables_number   1
_chemical_formula_structural   Sm2O3
_chemical_formula_sum   'Sm2 O3'
_cell_volume   75.02870276
_cell_formula_units_Z   1
loop_
 _symmetry_equiv_pos_site_id
 _symmetry_equiv_pos_as_xyz
  1  'x, y, z'
loop_
 _atom_site_type_symbol
 _atom_site_label
 _atom_site_symmetry_multiplicity
 _atom_site_fract_x
 _atom_site_fract_y
 _atom_site_fract_z
 _atom_site_occupancy
  Sm  Sm0  1  0.66666700  0.33333300  0.75071300  1
  Sm  Sm1  1  0.33333300  0.66666700  0.24928700  1
  O  O2  1  0.66666700  0.33333300  0.35504200  1
  O  O3  1  0.33333300  0.66666700  0.64495800  1
  O  O4  1  0.00000000  0.00000000  0.00000000  1
