# generated using pymatgen
data_NdCuSO
_symmetry_space_group_name_H-M   'P 1'
_cell_length_a   3.94213100
_cell_length_b   3.94213100
_cell_length_c   8.45951700
_cell_angle_alpha   90.00000000
_cell_angle_beta   90.00000000
_cell_angle_gamma   90.00000000
_symmetry_Int_Tables_number   1
_chemical_formula_structural   NdCuSO
_chemical_formula_sum   'Nd2 Cu2 S2 O2'
_cell_volume   131.46425110
_cell_formula_units_Z   2
loop_
 _symmetry_equiv_pos_site_id
 _symmetry_equiv_pos_as_xyz
  1  'x, y, z'
loop_
 _atom_site_type_symbol
 _atom_site_label
 _atom_site_symmetry_multiplicity
 _atom_site_fract_x
 _atom_site_fract_y
 _atom_site_fract_z
 _atom_site_occupancy
  Nd  Nd0  1  0.50000000  0.00000000  0.14572300  1
  Nd  Nd1  1  0.00000000  0.50000000  0.85427700  1
  Cu  Cu2  1  0.50000000  0.50000000  0.50000000  1
  Cu  Cu3  1  0.00000000  0.00000000  0.50000000  1
  S  S4  1  0.50000000  0.00000000  0.66548300  1
  S  S5  1  0.00000000  0.50000000  0.33451700  1
  O  O6  1  0.50000000  0.50000000  0.00000000  1
  O  O7  1  0.00000000  0.00000000  0.00000000  1
