# generated using pymatgen
data_K2MnH4(SeO5)2
_symmetry_space_group_name_H-M   'P 1'
_cell_length_a   6.13921400
_cell_length_b   7.79378205
_cell_length_c   7.95384328
_cell_angle_alpha   66.85132397
_cell_angle_beta   77.94705905
_cell_angle_gamma   73.20507460
_symmetry_Int_Tables_number   1
_chemical_formula_structural   K2MnH4(SeO5)2
_chemical_formula_sum   'K2 Mn1 H4 Se2 O10'
_cell_volume   333.04004116
_cell_formula_units_Z   1
loop_
 _symmetry_equiv_pos_site_id
 _symmetry_equiv_pos_as_xyz
  1  'x, y, z'
loop_
 _atom_site_type_symbol
 _atom_site_label
 _atom_site_symmetry_multiplicity
 _atom_site_fract_x
 _atom_site_fract_y
 _atom_site_fract_z
 _atom_site_occupancy
  K  K0  1  0.16555700  0.75462200  0.62957000  1
  K  K1  1  0.83444300  0.24537800  0.37043000  1
  Mn  Mn2  1  0.00000000  0.00000000  0.00000000  1
  H  H3  1  0.40272600  0.66588200  0.26398000  1
  H  H4  1  0.59727400  0.33411800  0.73602000  1
  H  H5  1  0.38868600  0.48228200  0.22478000  1
  H  H6  1  0.61131400  0.51771800  0.77522000  1
  Se  Se7  1  0.39940000  0.17832200  0.09183700  1
  Se  Se8  1  0.60060000  0.82167800  0.90816300  1
  O  O9  1  0.50656800  0.45215600  0.75495200  1
  O  O10  1  0.49343200  0.54784400  0.24504800  1
  O  O11  1  0.25677100  0.32707700  0.20450500  1
  O  O12  1  0.74322900  0.67292300  0.79549500  1
  O  O13  1  0.68135700  0.12761200  0.12379900  1
  O  O14  1  0.31864300  0.87238800  0.87620100  1
  O  O15  1  0.09858900  0.95493900  0.25078600  1
  O  O16  1  0.90141100  0.04506100  0.74921400  1
  O  O17  1  0.34323100  0.93436400  0.26263600  1
  O  O18  1  0.65676900  0.06563600  0.73736400  1
