# generated using pymatgen
data_NbPO5
_symmetry_space_group_name_H-M   'P 1'
_cell_length_a   5.39285400
_cell_length_b   13.28328900
_cell_length_c   13.50891478
_cell_angle_alpha   59.66203306
_cell_angle_beta   90.00000000
_cell_angle_gamma   90.00000000
_symmetry_Int_Tables_number   1
_chemical_formula_structural   NbPO5
_chemical_formula_sum   'Nb8 P8 O40'
_cell_volume   835.19186820
_cell_formula_units_Z   8
loop_
 _symmetry_equiv_pos_site_id
 _symmetry_equiv_pos_as_xyz
  1  'x, y, z'
loop_
 _atom_site_type_symbol
 _atom_site_label
 _atom_site_symmetry_multiplicity
 _atom_site_fract_x
 _atom_site_fract_y
 _atom_site_fract_z
 _atom_site_occupancy
  Nb  Nb0  1  0.24319400  0.93698000  0.69726900  1
  Nb  Nb1  1  0.74319400  0.06302000  0.80273100  1
  Nb  Nb2  1  0.75680600  0.06302000  0.30273100  1
  Nb  Nb3  1  0.25680600  0.93698000  0.19726900  1
  Nb  Nb4  1  0.25364100  0.43667300  0.36599100  1
  Nb  Nb5  1  0.75364100  0.56332700  0.13400900  1
  Nb  Nb6  1  0.74635900  0.56332700  0.63400900  1
  Nb  Nb7  1  0.24635900  0.43667300  0.86599100  1
  P  P8  1  0.26036500  0.65386800  0.93753700  1
  P  P9  1  0.76036500  0.34613200  0.56246300  1
  P  P10  1  0.73963500  0.34613200  0.06246300  1
  P  P11  1  0.23963500  0.65386800  0.43753700  1
  P  P12  1  0.76475700  0.84634500  0.09078200  1
  P  P13  1  0.26475700  0.15365500  0.40921800  1
  P  P14  1  0.23524300  0.15365500  0.90921800  1
  P  P15  1  0.73524300  0.84634500  0.59078200  1
  O  O16  1  0.24726500  0.78420100  0.84329800  1
  O  O17  1  0.74726500  0.21579900  0.65670200  1
  O  O18  1  0.75273500  0.21579900  0.15670200  1
  O  O19  1  0.25273500  0.78420100  0.34329800  1
  O  O20  1  0.23893700  0.08136700  0.54117200  1
  O  O21  1  0.73893700  0.91863300  0.95882800  1
  O  O22  1  0.76106300  0.91863300  0.45882800  1
  O  O23  1  0.26106300  0.08136700  0.04117200  1
  O  O24  1  0.52938900  0.99251200  0.74145500  1
  O  O25  1  0.02938900  0.00748800  0.75854500  1
  O  O26  1  0.47061100  0.00748800  0.25854500  1
  O  O27  1  0.97061100  0.99251200  0.24145500  1
  O  O28  1  0.47824500  0.86481000  0.62738500  1
  O  O29  1  0.97824500  0.13519000  0.87261500  1
  O  O30  1  0.52175500  0.13519000  0.37261500  1
  O  O31  1  0.02175500  0.86481000  0.12738500  1
  O  O32  1  0.94260500  0.87942300  0.64693700  1
  O  O33  1  0.44260500  0.12057700  0.85306300  1
  O  O34  1  0.05739500  0.12057700  0.35306300  1
  O  O35  1  0.55739500  0.87942300  0.14693700  1
  O  O36  1  0.23453500  0.28396000  0.37210600  1
  O  O37  1  0.73453500  0.71604000  0.12789400  1
  O  O38  1  0.76546500  0.71604000  0.62789400  1
  O  O39  1  0.26546500  0.28396000  0.87210600  1
  O  O40  1  0.27826200  0.58043300  0.37919800  1
  O  O41  1  0.77826200  0.41956700  0.12080200  1
  O  O42  1  0.72173800  0.41956700  0.62080200  1
  O  O43  1  0.22173800  0.58043300  0.87919800  1
  O  O44  1  0.47367200  0.50226000  0.23579400  1
  O  O45  1  0.97367200  0.49774000  0.26420600  1
  O  O46  1  0.52632800  0.49774000  0.76420600  1
  O  O47  1  0.02632800  0.50226000  0.73579400  1
  O  O48  1  0.01667800  0.37082100  0.50561300  1
  O  O49  1  0.51667800  0.62917900  0.99438700  1
  O  O50  1  0.98332200  0.62917900  0.49438700  1
  O  O51  1  0.48332200  0.37082100  0.00561300  1
  O  O52  1  0.55271900  0.37154200  0.47531800  1
  O  O53  1  0.05271900  0.62845800  0.02468200  1
  O  O54  1  0.44728100  0.62845800  0.52468200  1
  O  O55  1  0.94728100  0.37154200  0.97531800  1
