# generated using pymatgen
data_AsSe
_symmetry_space_group_name_H-M   'P 1'
_cell_length_a   14.58899800
_cell_length_b   7.09931200
_cell_length_c   10.55341190
_cell_angle_alpha   65.77570449
_cell_angle_beta   90.00000000
_cell_angle_gamma   90.00000000
_symmetry_Int_Tables_number   1
_chemical_formula_structural   AsSe
_chemical_formula_sum   'As16 Se16'
_cell_volume   996.79038498
_cell_formula_units_Z   16
loop_
 _symmetry_equiv_pos_site_id
 _symmetry_equiv_pos_as_xyz
  1  'x, y, z'
loop_
 _atom_site_type_symbol
 _atom_site_label
 _atom_site_symmetry_multiplicity
 _atom_site_fract_x
 _atom_site_fract_y
 _atom_site_fract_z
 _atom_site_occupancy
  As  As0  1  0.98674200  0.64427900  0.11947700  1
  As  As1  1  0.48674200  0.35572100  0.38052300  1
  As  As2  1  0.01325800  0.35572100  0.88052300  1
  As  As3  1  0.51325800  0.64427900  0.61947700  1
  As  As4  1  0.13921800  0.44265500  0.42128200  1
  As  As5  1  0.63921800  0.55734500  0.07871800  1
  As  As6  1  0.86078200  0.55734500  0.57871800  1
  As  As7  1  0.36078200  0.44265500  0.92128200  1
  As  As8  1  0.13040800  0.84557200  0.31934700  1
  As  As9  1  0.63040800  0.15442800  0.18065300  1
  As  As10  1  0.86959200  0.15442800  0.68065300  1
  As  As11  1  0.36959200  0.84557200  0.81934700  1
  As  As12  1  0.15954700  0.66669700  0.04389200  1
  As  As13  1  0.65954700  0.33330300  0.45610800  1
  As  As14  1  0.84045300  0.33330300  0.95610800  1
  As  As15  1  0.34045300  0.66669700  0.54389200  1
  Se  Se16  1  0.99452500  0.36000200  0.34568200  1
  Se  Se17  1  0.49452500  0.63999800  0.15431800  1
  Se  Se18  1  0.00547500  0.63999800  0.65431800  1
  Se  Se19  1  0.50547500  0.36000200  0.84568200  1
  Se  Se20  1  0.98121100  0.90418200  0.21119200  1
  Se  Se21  1  0.48121100  0.09581800  0.28880800  1
  Se  Se22  1  0.01878900  0.09581800  0.78880800  1
  Se  Se23  1  0.51878900  0.90418200  0.71119200  1
  Se  Se24  1  0.22652700  0.39395400  0.24299200  1
  Se  Se25  1  0.72652700  0.60604600  0.25700800  1
  Se  Se26  1  0.77347300  0.60604600  0.75700800  1
  Se  Se27  1  0.27347300  0.39395400  0.74299200  1
  Se  Se28  1  0.21376300  0.93795100  0.10497900  1
  Se  Se29  1  0.71376300  0.06204900  0.39502100  1
  Se  Se30  1  0.78623700  0.06204900  0.89502100  1
  Se  Se31  1  0.28623700  0.93795100  0.60497900  1
