# generated using pymatgen
data_P4O7
_symmetry_space_group_name_H-M   'P 1'
_cell_length_a   10.68807000
_cell_length_b   6.94230200
_cell_length_c   11.76533121
_cell_angle_alpha   62.18607233
_cell_angle_beta   90.00000000
_cell_angle_gamma   90.00000000
_symmetry_Int_Tables_number   1
_chemical_formula_structural   P4O7
_chemical_formula_sum   'P16 O28'
_cell_volume   772.12722691
_cell_formula_units_Z   4
loop_
 _symmetry_equiv_pos_site_id
 _symmetry_equiv_pos_as_xyz
  1  'x, y, z'
loop_
 _atom_site_type_symbol
 _atom_site_label
 _atom_site_symmetry_multiplicity
 _atom_site_fract_x
 _atom_site_fract_y
 _atom_site_fract_z
 _atom_site_occupancy
  P  P0  1  0.32749900  0.02874000  0.04435200  1
  P  P1  1  0.11488300  0.14434700  0.16328600  1
  P  P2  1  0.82749900  0.97126000  0.45564800  1
  P  P3  1  0.67250100  0.97126000  0.95564800  1
  P  P4  1  0.70998700  0.51140600  0.01227500  1
  P  P5  1  0.29001300  0.48859400  0.98772500  1
  P  P6  1  0.61668500  0.72106600  0.61074700  1
  P  P7  1  0.88511700  0.85565300  0.83671400  1
  P  P8  1  0.38511700  0.14434700  0.66328600  1
  P  P9  1  0.79001300  0.51140600  0.51227500  1
  P  P10  1  0.88331500  0.72106600  0.11074700  1
  P  P11  1  0.61488300  0.85565300  0.33671400  1
  P  P12  1  0.11668500  0.27893400  0.88925300  1
  P  P13  1  0.38331500  0.27893400  0.38925300  1
  P  P14  1  0.17250100  0.02874000  0.54435200  1
  P  P15  1  0.20998700  0.48859400  0.48772500  1
  O  O16  1  0.69412400  0.62421200  0.38678500  1
  O  O17  1  0.95690900  0.80101900  0.97707300  1
  O  O18  1  0.87693300  0.72412300  0.48984700  1
  O  O19  1  0.46265200  0.31356200  0.28009300  1
  O  O20  1  0.96265200  0.68643800  0.21990700  1
  O  O21  1  0.80855000  0.50986800  0.12630100  1
  O  O22  1  0.72384500  0.90230800  0.57810000  1
  O  O23  1  0.77615500  0.90230800  0.07810000  1
  O  O24  1  0.30855000  0.49013200  0.37369900  1
  O  O25  1  0.27296200  0.98047400  0.66179300  1
  O  O26  1  0.72703800  0.01952600  0.33820700  1
  O  O27  1  0.19145000  0.49013200  0.87369900  1
  O  O28  1  0.04309100  0.19898100  0.02292700  1
  O  O29  1  0.22384500  0.09769200  0.92190000  1
  O  O30  1  0.80587600  0.62421200  0.88678500  1
  O  O31  1  0.03734800  0.31356200  0.78009300  1
  O  O32  1  0.54309100  0.80101900  0.47707300  1
  O  O33  1  0.22703800  0.98047400  0.16179300  1
  O  O34  1  0.27615500  0.09769200  0.42190000  1
  O  O35  1  0.19412400  0.37578800  0.11321500  1
  O  O36  1  0.37693300  0.27587700  0.01015300  1
  O  O37  1  0.69145000  0.50986800  0.62630100  1
  O  O38  1  0.30587600  0.37578800  0.61321500  1
  O  O39  1  0.77296200  0.01952600  0.83820700  1
  O  O40  1  0.53734800  0.68643800  0.71990700  1
  O  O41  1  0.12306700  0.27587700  0.51015300  1
  O  O42  1  0.45690900  0.19898100  0.52292700  1
  O  O43  1  0.62306700  0.72412300  0.98984700  1
