# generated using pymatgen
data_ZrNCl
_symmetry_space_group_name_H-M   'P 1'
_cell_length_a   9.79367048
_cell_length_b   9.79367048
_cell_length_c   9.79367004
_cell_angle_alpha   21.45890122
_cell_angle_beta   21.45890122
_cell_angle_gamma   21.45890208
_symmetry_Int_Tables_number   1
_chemical_formula_structural   ZrNCl
_chemical_formula_sum   'Zr2 N2 Cl2'
_cell_volume   110.14883152
_cell_formula_units_Z   2
loop_
 _symmetry_equiv_pos_site_id
 _symmetry_equiv_pos_as_xyz
  1  'x, y, z'
loop_
 _atom_site_type_symbol
 _atom_site_label
 _atom_site_symmetry_multiplicity
 _atom_site_fract_x
 _atom_site_fract_y
 _atom_site_fract_z
 _atom_site_occupancy
  Zr  Zr0  1  0.12067700  0.12067700  0.12067700  1
  Zr  Zr1  1  0.87932300  0.87932300  0.87932300  1
  N  N2  1  0.19690600  0.19690600  0.19690600  1
  N  N3  1  0.80309400  0.80309400  0.80309400  1
  Cl  Cl4  1  0.39072700  0.39072700  0.39072700  1
  Cl  Cl5  1  0.60927300  0.60927300  0.60927300  1
