# generated using pymatgen
data_SiO2
_symmetry_space_group_name_H-M   'P 1'
_cell_length_a   5.08375300
_cell_length_b   8.46679600
_cell_length_c   26.90803700
_cell_angle_alpha   90.00000000
_cell_angle_beta   90.00000000
_cell_angle_gamma   90.00000000
_symmetry_Int_Tables_number   1
_chemical_formula_structural   SiO2
_chemical_formula_sum   'Si24 O48'
_cell_volume   1158.20531570
_cell_formula_units_Z   24
loop_
 _symmetry_equiv_pos_site_id
 _symmetry_equiv_pos_as_xyz
  1  'x, y, z'
loop_
 _atom_site_type_symbol
 _atom_site_label
 _atom_site_symmetry_multiplicity
 _atom_site_fract_x
 _atom_site_fract_y
 _atom_site_fract_z
 _atom_site_occupancy
  Si  Si0  1  0.61345800  0.67707400  0.13884200  1
  Si  Si1  1  0.11345800  0.82292600  0.86115800  1
  Si  Si2  1  0.38654200  0.17707400  0.36115800  1
  Si  Si3  1  0.88654200  0.32292600  0.63884200  1
  Si  Si4  1  0.49727100  0.30231000  0.13871600  1
  Si  Si5  1  0.99727100  0.19769000  0.86128400  1
  Si  Si6  1  0.50272900  0.80231000  0.36128400  1
  Si  Si7  1  0.00272900  0.69769000  0.63871600  1
  Si  Si8  1  0.61663100  0.81079600  0.02787500  1
  Si  Si9  1  0.11663100  0.68920400  0.97212500  1
  Si  Si10  1  0.38336900  0.31079600  0.47212500  1
  Si  Si11  1  0.88336900  0.18920400  0.52787500  1
  Si  Si12  1  0.50053400  0.18604800  0.02786800  1
  Si  Si13  1  0.00053400  0.31395200  0.97213200  1
  Si  Si14  1  0.49946600  0.68604800  0.47213200  1
  Si  Si15  1  0.99946600  0.81395200  0.52786800  1
  Si  Si16  1  0.11425900  0.79943000  0.19467200  1
  Si  Si17  1  0.61425900  0.70057000  0.80532800  1
  Si  Si18  1  0.88574100  0.29943000  0.30532800  1
  Si  Si19  1  0.38574100  0.20057000  0.69467200  1
  Si  Si20  1  0.99646600  0.17386100  0.19425700  1
  Si  Si21  1  0.49646600  0.32613900  0.80574300  1
  Si  Si22  1  0.00353400  0.67386100  0.30574300  1
  Si  Si23  1  0.50353400  0.82613900  0.69425700  1
  O  O24  1  0.06545900  0.98778500  0.19490200  1
  O  O25  1  0.56545900  0.51221500  0.80509800  1
  O  O26  1  0.93454100  0.48778500  0.30509800  1
  O  O27  1  0.43454100  0.01221500  0.69490200  1
  O  O28  1  0.56702800  0.48837600  0.13967200  1
  O  O29  1  0.06702800  0.01162400  0.86032800  1
  O  O30  1  0.43297200  0.98837600  0.36032800  1
  O  O31  1  0.93297200  0.51162400  0.63967200  1
  O  O32  1  0.57282900  0.00003400  0.02852600  1
  O  O33  1  0.07282900  0.49996600  0.97147400  1
  O  O34  1  0.42717100  0.50003400  0.47147400  1
  O  O35  1  0.92717100  0.99996600  0.52852600  1
  O  O36  1  0.56415600  0.74141200  0.08301400  1
  O  O37  1  0.06415600  0.75858800  0.91698600  1
  O  O38  1  0.43584400  0.24141200  0.41698600  1
  O  O39  1  0.93584400  0.25858800  0.58301400  1
  O  O40  1  0.41614300  0.24589200  0.08304000  1
  O  O41  1  0.91614300  0.25410800  0.91696000  1
  O  O42  1  0.58385700  0.74589200  0.41696000  1
  O  O43  1  0.08385700  0.75410800  0.58304000  1
  O  O44  1  0.91895600  0.23148800  0.24956900  1
  O  O45  1  0.41895600  0.26851200  0.75043100  1
  O  O46  1  0.08104400  0.73148800  0.25043100  1
  O  O47  1  0.58104400  0.76851200  0.74956900  1
  O  O48  1  0.41417000  0.76570900  0.17685300  1
  O  O49  1  0.91417000  0.73429100  0.82314700  1
  O  O50  1  0.58583000  0.26570900  0.32314700  1
  O  O51  1  0.08583000  0.23429100  0.67685300  1
  O  O52  1  0.25045200  0.27418600  0.17588300  1
  O  O53  1  0.75045200  0.22581400  0.82411700  1
  O  O54  1  0.74954800  0.77418600  0.32411700  1
  O  O55  1  0.24954800  0.72581400  0.67588300  1
  O  O56  1  0.91361000  0.71267300  0.15635700  1
  O  O57  1  0.41361000  0.78732700  0.84364300  1
  O  O58  1  0.08639000  0.21267300  0.34364300  1
  O  O59  1  0.58639000  0.28732700  0.65635700  1
  O  O60  1  0.75094000  0.20043600  0.15656000  1
  O  O61  1  0.25094000  0.29956400  0.84344000  1
  O  O62  1  0.24906000  0.70043600  0.34344000  1
  O  O63  1  0.74906000  0.79956400  0.65656000  1
  O  O64  1  0.41781500  0.72658600  0.98864600  1
  O  O65  1  0.91781500  0.77341400  0.01135400  1
  O  O66  1  0.58218500  0.22658600  0.51135400  1
  O  O67  1  0.08218500  0.27341400  0.48864600  1
  O  O68  1  0.25345800  0.21200700  0.99047000  1
  O  O69  1  0.75345800  0.28799300  0.00953000  1
  O  O70  1  0.74654200  0.71200700  0.50953000  1
  O  O71  1  0.24654200  0.78799300  0.49047000  1
