# generated using pymatgen
data_MgB2P2H8O13
_symmetry_space_group_name_H-M   'P 1'
_cell_length_a   14.82632600
_cell_length_b   7.80768400
_cell_length_c   8.34547817
_cell_angle_alpha   89.54671516
_cell_angle_beta   90.00000000
_cell_angle_gamma   90.00000000
_symmetry_Int_Tables_number   1
_chemical_formula_structural   MgB2P2H8O13
_chemical_formula_sum   'Mg4 B8 P8 H32 O52'
_cell_volume   966.03621363
_cell_formula_units_Z   4
loop_
 _symmetry_equiv_pos_site_id
 _symmetry_equiv_pos_as_xyz
  1  'x, y, z'
loop_
 _atom_site_type_symbol
 _atom_site_label
 _atom_site_symmetry_multiplicity
 _atom_site_fract_x
 _atom_site_fract_y
 _atom_site_fract_z
 _atom_site_occupancy
  Mg  Mg0  1  0.46431600  0.24920200  0.20004600  1
  Mg  Mg1  1  0.96431600  0.75079800  0.29995400  1
  Mg  Mg2  1  0.53568400  0.75079800  0.79995400  1
  Mg  Mg3  1  0.03568400  0.24920200  0.70004600  1
  B  B4  1  0.71731100  0.91642300  0.93923800  1
  B  B5  1  0.21731100  0.08357700  0.56076200  1
  B  B6  1  0.28268900  0.08357700  0.06076200  1
  B  B7  1  0.78268900  0.91642300  0.43923800  1
  B  B8  1  0.66433500  0.41668800  0.22669900  1
  B  B9  1  0.16433500  0.58331200  0.27330100  1
  B  B10  1  0.33566500  0.58331200  0.77330100  1
  B  B11  1  0.83566500  0.41668800  0.72669900  1
  P  P12  1  0.71304500  0.56667000  0.93394300  1
  P  P13  1  0.21304500  0.43333000  0.56605700  1
  P  P14  1  0.28695500  0.43333000  0.06605700  1
  P  P15  1  0.78695500  0.56667000  0.43394300  1
  P  P16  1  0.83903500  0.06536400  0.72521600  1
  P  P17  1  0.33903500  0.93463600  0.77478400  1
  P  P18  1  0.16096500  0.93463600  0.27478400  1
  P  P19  1  0.66096500  0.06536400  0.22521600  1
  H  H20  1  0.13285400  0.95916300  0.72469900  1
  H  H21  1  0.63285400  0.04083700  0.77530100  1
  H  H22  1  0.86714600  0.04083700  0.27530100  1
  H  H23  1  0.36714600  0.95916300  0.22469900  1
  H  H24  1  0.55029100  0.54805300  0.16386700  1
  H  H25  1  0.05029100  0.45194700  0.33613300  1
  H  H26  1  0.44970900  0.45194700  0.83613300  1
  H  H27  1  0.94970900  0.54805300  0.66386700  1
  H  H28  1  0.99281700  0.24496400  0.02070700  1
  H  H29  1  0.49281700  0.75503600  0.47929300  1
  H  H30  1  0.00718300  0.75503600  0.97929300  1
  H  H31  1  0.50718300  0.24496400  0.52070700  1
  H  H32  1  0.09806200  0.20974200  0.00906300  1
  H  H33  1  0.59806200  0.79025800  0.49093700  1
  H  H34  1  0.90193800  0.79025800  0.99093700  1
  H  H35  1  0.40193800  0.20974200  0.50906300  1
  H  H36  1  0.94883800  0.27649200  0.42007200  1
  H  H37  1  0.44883800  0.72350800  0.07992800  1
  H  H38  1  0.05116200  0.72350800  0.57992800  1
  H  H39  1  0.55116200  0.27649200  0.92007200  1
  H  H40  1  0.02780600  0.14583300  0.38334100  1
  H  H41  1  0.52780600  0.85416700  0.11665900  1
  H  H42  1  0.97219400  0.85416700  0.61665900  1
  H  H43  1  0.47219400  0.14583300  0.88334100  1
  H  H44  1  0.84212400  0.23046200  0.07199300  1
  H  H45  1  0.34212400  0.76953800  0.42800700  1
  H  H46  1  0.15787600  0.76953800  0.92800700  1
  H  H47  1  0.65787600  0.23046200  0.57199300  1
  H  H48  1  0.88271600  0.35870300  0.19353000  1
  H  H49  1  0.38271600  0.64129700  0.30647000  1
  H  H50  1  0.11728400  0.64129700  0.80647000  1
  H  H51  1  0.61728400  0.35870300  0.69353000  1
  O  O52  1  0.93956900  0.04410600  0.69812500  1
  O  O53  1  0.43956900  0.95589400  0.80187500  1
  O  O54  1  0.06043100  0.95589400  0.30187500  1
  O  O55  1  0.56043100  0.04410600  0.19812500  1
  O  O56  1  0.80315900  0.54533200  0.84140400  1
  O  O57  1  0.30315900  0.45466800  0.65859600  1
  O  O58  1  0.19684100  0.45466800  0.15859600  1
  O  O59  1  0.69684100  0.54533200  0.34140400  1
  O  O60  1  0.62914500  0.54893300  0.82994400  1
  O  O61  1  0.12914500  0.45106700  0.67005600  1
  O  O62  1  0.37085500  0.45106700  0.17005600  1
  O  O63  1  0.87085500  0.54893300  0.32994400  1
  O  O64  1  0.78216500  0.04664300  0.56904000  1
  O  O65  1  0.28216500  0.95335700  0.93096000  1
  O  O66  1  0.21783500  0.95335700  0.43096000  1
  O  O67  1  0.71783500  0.04664300  0.06904000  1
  O  O68  1  0.80616700  0.93560800  0.85525600  1
  O  O69  1  0.30616700  0.06439200  0.64474400  1
  O  O70  1  0.19383300  0.06439200  0.14474400  1
  O  O71  1  0.69383300  0.93560800  0.35525600  1
  O  O72  1  0.78445500  0.43305700  0.57295900  1
  O  O73  1  0.28445500  0.56694300  0.92704100  1
  O  O74  1  0.21554500  0.56694300  0.42704100  1
  O  O75  1  0.71554500  0.43305700  0.07295900  1
  O  O76  1  0.21750600  0.25390800  0.48495800  1
  O  O77  1  0.71750600  0.74609200  0.01504200  1
  O  O78  1  0.78249400  0.74609200  0.51504200  1
  O  O79  1  0.28249400  0.25390800  0.98495800  1
  O  O80  1  0.81508800  0.24522100  0.79366000  1
  O  O81  1  0.31508800  0.75477900  0.70634000  1
  O  O82  1  0.18491200  0.75477900  0.20634000  1
  O  O83  1  0.68491200  0.24522100  0.29366000  1
  O  O84  1  0.13882000  0.06848800  0.66548500  1
  O  O85  1  0.63882000  0.93151200  0.83451500  1
  O  O86  1  0.86118000  0.93151200  0.33451500  1
  O  O87  1  0.36118000  0.06848800  0.16548500  1
  O  O88  1  0.56758100  0.43325000  0.20466200  1
  O  O89  1  0.06758100  0.56675000  0.29533800  1
  O  O90  1  0.43241900  0.56675000  0.79533800  1
  O  O91  1  0.93241900  0.43325000  0.70466200  1
  O  O92  1  0.04501700  0.24193900  0.94627100  1
  O  O93  1  0.54501700  0.75806100  0.55372900  1
  O  O94  1  0.95498300  0.75806100  0.05372900  1
  O  O95  1  0.45498300  0.24193900  0.44627100  1
  O  O96  1  0.01302700  0.25657900  0.43824700  1
  O  O97  1  0.51302700  0.74342100  0.06175300  1
  O  O98  1  0.98697300  0.74342100  0.56175300  1
  O  O99  1  0.48697300  0.25657900  0.93824700  1
  O  O100  1  0.89298400  0.24425200  0.14597700  1
  O  O101  1  0.39298400  0.75574800  0.35402300  1
  O  O102  1  0.10701600  0.75574800  0.85402300  1
  O  O103  1  0.60701600  0.24425200  0.64597700  1
