# generated using pymatgen
data_Cs2CuH12(SO7)2
_symmetry_space_group_name_H-M   'P 1'
_cell_length_a   12.85787000
_cell_length_b   6.35846600
_cell_length_c   9.52318886
_cell_angle_alpha   74.49385957
_cell_angle_beta   90.00000000
_cell_angle_gamma   90.00000000
_symmetry_Int_Tables_number   1
_chemical_formula_structural   Cs2CuH12(SO7)2
_chemical_formula_sum   'Cs4 Cu2 H24 S4 O28'
_cell_volume   750.24202405
_cell_formula_units_Z   2
loop_
 _symmetry_equiv_pos_site_id
 _symmetry_equiv_pos_as_xyz
  1  'x, y, z'
loop_
 _atom_site_type_symbol
 _atom_site_label
 _atom_site_symmetry_multiplicity
 _atom_site_fract_x
 _atom_site_fract_y
 _atom_site_fract_z
 _atom_site_occupancy
  Cs  Cs0  1  0.35508400  0.64746100  0.11200200  1
  Cs  Cs1  1  0.85508400  0.35253900  0.38799800  1
  Cs  Cs2  1  0.64491600  0.35253900  0.88799800  1
  Cs  Cs3  1  0.14491600  0.64746100  0.61200200  1
  Cu  Cu4  1  0.00000000  0.00000000  0.00000000  1
  Cu  Cu5  1  0.50000000  0.00000000  0.50000000  1
  H  H6  1  0.09604300  0.68854100  0.18946900  1
  H  H7  1  0.59604300  0.31145900  0.31053100  1
  H  H8  1  0.90395700  0.31145900  0.81053100  1
  H  H9  1  0.40395700  0.68854100  0.68946900  1
  H  H10  1  0.12755200  0.92231900  0.21771600  1
  H  H11  1  0.62755200  0.07768100  0.28228400  1
  H  H12  1  0.87244800  0.07768100  0.78228400  1
  H  H13  1  0.37244800  0.92231900  0.71771600  1
  H  H14  1  0.10005400  0.07677300  0.69938900  1
  H  H15  1  0.60005400  0.92322700  0.80061100  1
  H  H16  1  0.89994600  0.92322700  0.30061100  1
  H  H17  1  0.39994600  0.07677300  0.19938900  1
  H  H18  1  0.18638200  0.01415200  0.81985700  1
  H  H19  1  0.68638200  0.98584800  0.68014300  1
  H  H20  1  0.81361800  0.98584800  0.18014300  1
  H  H21  1  0.31361800  0.01415200  0.31985700  1
  H  H22  1  0.93728000  0.67650000  0.90511500  1
  H  H23  1  0.43728000  0.32350000  0.59488500  1
  H  H24  1  0.06272000  0.32350000  0.09488500  1
  H  H25  1  0.56272000  0.67650000  0.40511500  1
  H  H26  1  0.86347600  0.69781800  0.03505400  1
  H  H27  1  0.36347600  0.30218200  0.46494600  1
  H  H28  1  0.13652400  0.30218200  0.96494600  1
  H  H29  1  0.63652400  0.69781800  0.53505400  1
  S  S30  1  0.14781700  0.26360300  0.37600800  1
  S  S31  1  0.64781700  0.73639700  0.12399200  1
  S  S32  1  0.85218300  0.73639700  0.62399200  1
  S  S33  1  0.35218300  0.26360300  0.87600800  1
  O  O34  1  0.24378900  0.38398800  0.39624300  1
  O  O35  1  0.74378900  0.61601200  0.10375700  1
  O  O36  1  0.75621100  0.61601200  0.60375700  1
  O  O37  1  0.25621100  0.38398800  0.89624300  1
  O  O38  1  0.08270000  0.21669900  0.50953000  1
  O  O39  1  0.58270000  0.78330100  0.99047000  1
  O  O40  1  0.91730000  0.78330100  0.49047000  1
  O  O41  1  0.41730000  0.21669900  0.00953000  1
  O  O42  1  0.08620700  0.40419700  0.25113200  1
  O  O43  1  0.58620700  0.59580300  0.24886800  1
  O  O44  1  0.91379300  0.59580300  0.74886800  1
  O  O45  1  0.41379300  0.40419700  0.75113200  1
  O  O46  1  0.17727500  0.05522300  0.34028700  1
  O  O47  1  0.67727500  0.94477700  0.15971300  1
  O  O48  1  0.82272500  0.94477700  0.65971300  1
  O  O49  1  0.32272500  0.05522300  0.84028700  1
  O  O50  1  0.11140100  0.84544700  0.14152400  1
  O  O51  1  0.61140100  0.15455300  0.35847600  1
  O  O52  1  0.88859900  0.15455300  0.85847600  1
  O  O53  1  0.38859900  0.84544700  0.64152400  1
  O  O54  1  0.11295200  0.98551400  0.79949000  1
  O  O55  1  0.61295200  0.01448600  0.70051000  1
  O  O56  1  0.88704800  0.01448600  0.20051000  1
  O  O57  1  0.38704800  0.98551400  0.29949000  1
  O  O58  1  0.93733600  0.71418300  0.00064800  1
  O  O59  1  0.43733600  0.28581700  0.49935200  1
  O  O60  1  0.06266400  0.28581700  0.99935200  1
  O  O61  1  0.56266400  0.71418300  0.50064800  1
