# generated using pymatgen
data_AlPO4
_symmetry_space_group_name_H-M   'P 1'
_cell_length_a   5.33597397
_cell_length_b   5.33597397
_cell_length_c   8.71484300
_cell_angle_alpha   90.00000000
_cell_angle_beta   90.00000000
_cell_angle_gamma   119.99999959
_symmetry_Int_Tables_number   1
_chemical_formula_structural   AlPO4
_chemical_formula_sum   'Al2 P2 O8'
_cell_volume   214.89069243
_cell_formula_units_Z   2
loop_
 _symmetry_equiv_pos_site_id
 _symmetry_equiv_pos_as_xyz
  1  'x, y, z'
loop_
 _atom_site_type_symbol
 _atom_site_label
 _atom_site_symmetry_multiplicity
 _atom_site_fract_x
 _atom_site_fract_y
 _atom_site_fract_z
 _atom_site_occupancy
  Al  Al0  1  0.66666700  0.33333300  0.56205800  1
  Al  Al1  1  0.33333300  0.66666700  0.06205800  1
  P  P2  1  0.33333300  0.66666700  0.43696900  1
  P  P3  1  0.66666700  0.33333300  0.93696900  1
  O  O4  1  0.51067000  0.02134000  0.99541300  1
  O  O5  1  0.48933000  0.51067000  0.49541300  1
  O  O6  1  0.48933000  0.97866000  0.49541300  1
  O  O7  1  0.66666700  0.33333300  0.76153200  1
  O  O8  1  0.33333300  0.66666700  0.26153200  1
  O  O9  1  0.97866000  0.48933000  0.99541300  1
  O  O10  1  0.51067000  0.48933000  0.99541300  1
  O  O11  1  0.02134000  0.51067000  0.49541300  1
