# generated using pymatgen
data_Ba3ZnN2O
_symmetry_space_group_name_H-M   'P 1'
_cell_length_a   4.14976700
_cell_length_b   4.14976700
_cell_length_c   9.29283100
_cell_angle_alpha   90.00000000
_cell_angle_beta   90.00000000
_cell_angle_gamma   90.00000000
_symmetry_Int_Tables_number   1
_chemical_formula_structural   Ba3ZnN2O
_chemical_formula_sum   'Ba3 Zn1 N2 O1'
_cell_volume   160.02781100
_cell_formula_units_Z   1
loop_
 _symmetry_equiv_pos_site_id
 _symmetry_equiv_pos_as_xyz
  1  'x, y, z'
loop_
 _atom_site_type_symbol
 _atom_site_label
 _atom_site_symmetry_multiplicity
 _atom_site_fract_x
 _atom_site_fract_y
 _atom_site_fract_z
 _atom_site_occupancy
  Ba  Ba0  1  0.00000000  0.00000000  0.21788500  1
  Ba  Ba1  1  0.00000000  0.00000000  0.78211500  1
  Ba  Ba2  1  0.50000000  0.50000000  0.50000000  1
  Zn  Zn3  1  0.50000000  0.50000000  0.00000000  1
  N  N4  1  0.50000000  0.50000000  0.80054000  1
  N  N5  1  0.50000000  0.50000000  0.19946000  1
  O  O6  1  0.00000000  0.00000000  0.50000000  1
