# generated using pymatgen
data_TbBi2ClO4
_symmetry_space_group_name_H-M   'P 1'
_cell_length_a   3.90593600
_cell_length_b   3.90593600
_cell_length_c   9.09312300
_cell_angle_alpha   90.00000000
_cell_angle_beta   90.00000000
_cell_angle_gamma   90.00000000
_symmetry_Int_Tables_number   1
_chemical_formula_structural   TbBi2ClO4
_chemical_formula_sum   'Tb1 Bi2 Cl1 O4'
_cell_volume   138.72774011
_cell_formula_units_Z   1
loop_
 _symmetry_equiv_pos_site_id
 _symmetry_equiv_pos_as_xyz
  1  'x, y, z'
loop_
 _atom_site_type_symbol
 _atom_site_label
 _atom_site_symmetry_multiplicity
 _atom_site_fract_x
 _atom_site_fract_y
 _atom_site_fract_z
 _atom_site_occupancy
  Tb  Tb0  1  0.00000000  0.00000000  0.00000000  1
  Bi  Bi1  1  0.50000000  0.50000000  0.27720800  1
  Bi  Bi2  1  0.50000000  0.50000000  0.72279200  1
  Cl  Cl3  1  0.00000000  0.00000000  0.50000000  1
  O  O4  1  0.00000000  0.50000000  0.15349900  1
  O  O5  1  0.50000000  0.00000000  0.15349900  1
  O  O6  1  0.50000000  0.00000000  0.84650100  1
  O  O7  1  0.00000000  0.50000000  0.84650100  1
