# generated using pymatgen
data_U(BiO3)2
_symmetry_space_group_name_H-M   'P 1'
_cell_length_a   3.89662144
_cell_length_b   3.89662144
_cell_length_c   9.76011900
_cell_angle_alpha   90.00000000
_cell_angle_beta   90.00000000
_cell_angle_gamma   119.99999058
_symmetry_Int_Tables_number   1
_chemical_formula_structural   U(BiO3)2
_chemical_formula_sum   'U1 Bi2 O6'
_cell_volume   128.34005421
_cell_formula_units_Z   1
loop_
 _symmetry_equiv_pos_site_id
 _symmetry_equiv_pos_as_xyz
  1  'x, y, z'
loop_
 _atom_site_type_symbol
 _atom_site_label
 _atom_site_symmetry_multiplicity
 _atom_site_fract_x
 _atom_site_fract_y
 _atom_site_fract_z
 _atom_site_occupancy
  U  U0  1  0.00000000  0.00000000  0.00000000  1
  Bi  Bi1  1  0.66666700  0.33333300  0.34274100  1
  Bi  Bi2  1  0.33333300  0.66666700  0.65725900  1
  O  O3  1  0.66666700  0.33333300  0.58069000  1
  O  O4  1  0.33333300  0.66666700  0.41931000  1
  O  O5  1  0.66666700  0.33333300  0.95538300  1
  O  O6  1  0.33333300  0.66666700  0.04461700  1
  O  O7  1  0.00000000  0.00000000  0.20970800  1
  O  O8  1  0.00000000  0.00000000  0.79029200  1
