# generated using pymatgen
data_MgO
_symmetry_space_group_name_H-M   'P 1'
_cell_length_a   3.34705555
_cell_length_b   3.34705555
_cell_length_c   5.00328300
_cell_angle_alpha   90.00000000
_cell_angle_beta   90.00000000
_cell_angle_gamma   119.99999103
_symmetry_Int_Tables_number   1
_chemical_formula_structural   MgO
_chemical_formula_sum   'Mg2 O2'
_cell_volume   48.54131966
_cell_formula_units_Z   2
loop_
 _symmetry_equiv_pos_site_id
 _symmetry_equiv_pos_as_xyz
  1  'x, y, z'
loop_
 _atom_site_type_symbol
 _atom_site_label
 _atom_site_symmetry_multiplicity
 _atom_site_fract_x
 _atom_site_fract_y
 _atom_site_fract_z
 _atom_site_occupancy
  Mg  Mg0  1  0.33333300  0.66666700  0.00063200  1
  Mg  Mg1  1  0.66666700  0.33333300  0.50063200  1
  O  O2  1  0.33333300  0.66666700  0.40396800  1
  O  O3  1  0.66666700  0.33333300  0.90396800  1
