# generated using pymatgen
data_DyBO3
_symmetry_space_group_name_H-M   'P 1'
_cell_length_a   7.24318100
_cell_length_b   9.03684672
_cell_length_c   9.92157476
_cell_angle_alpha   81.35852171
_cell_angle_beta   85.73993511
_cell_angle_gamma   77.30893923
_symmetry_Int_Tables_number   1
_chemical_formula_structural   DyBO3
_chemical_formula_sum   'Dy12 B12 O36'
_cell_volume   625.78966314
_cell_formula_units_Z   12
loop_
 _symmetry_equiv_pos_site_id
 _symmetry_equiv_pos_as_xyz
  1  'x, y, z'
loop_
 _atom_site_type_symbol
 _atom_site_label
 _atom_site_symmetry_multiplicity
 _atom_site_fract_x
 _atom_site_fract_y
 _atom_site_fract_z
 _atom_site_occupancy
  Dy  Dy0  1  0.26222000  0.55867500  0.97292500  1
  Dy  Dy1  1  0.73778000  0.44132500  0.02707500  1
  Dy  Dy2  1  0.75133500  0.95688500  0.51909400  1
  Dy  Dy3  1  0.24866500  0.04311500  0.48090600  1
  Dy  Dy4  1  0.90154600  0.06831200  0.83676400  1
  Dy  Dy5  1  0.09845400  0.93168800  0.16323600  1
  Dy  Dy6  1  0.09805600  0.43545200  0.67126100  1
  Dy  Dy7  1  0.90194400  0.56454800  0.32873900  1
  Dy  Dy8  1  0.56465200  0.55855800  0.65754600  1
  Dy  Dy9  1  0.43534800  0.44144200  0.34245400  1
  Dy  Dy10  1  0.42677400  0.94330000  0.84461800  1
  Dy  Dy11  1  0.57322600  0.05670000  0.15538200  1
  B  B12  1  0.47794200  0.28454000  0.92243600  1
  B  B13  1  0.52205800  0.71546000  0.07756400  1
  B  B14  1  0.46631400  0.77928900  0.38690300  1
  B  B15  1  0.53368600  0.22071100  0.61309700  1
  B  B16  1  0.83175300  0.72861400  0.79459400  1
  B  B17  1  0.16824700  0.27138600  0.20540600  1
  B  B18  1  0.21946300  0.78276500  0.69164000  1
  B  B19  1  0.78053700  0.21723500  0.30836000  1
  B  B20  1  0.88344000  0.74412100  0.05113700  1
  B  B21  1  0.11656000  0.25587900  0.94886300  1
  B  B22  1  0.10827200  0.75176900  0.44817400  1
  B  B23  1  0.89172800  0.24823100  0.55182600  1
  O  O24  1  0.06175500  0.18590500  0.62955400  1
  O  O25  1  0.93824500  0.81409500  0.37044600  1
  O  O26  1  0.94431400  0.31870100  0.87364900  1
  O  O27  1  0.05568600  0.68129900  0.12635100  1
  O  O28  1  0.91856300  0.16273900  0.42787300  1
  O  O29  1  0.08143700  0.83726100  0.57212700  1
  O  O30  1  0.08315100  0.33306600  0.08049400  1
  O  O31  1  0.91684900  0.66693400  0.91950600  1
  O  O32  1  0.84969900  0.41232100  0.53449400  1
  O  O33  1  0.15030100  0.58767900  0.46550600  1
  O  O34  1  0.15313900  0.09057000  0.96446600  1
  O  O35  1  0.84686100  0.90943000  0.03553400  1
  O  O36  1  0.26930300  0.81668600  0.36495900  1
  O  O37  1  0.73069700  0.18331400  0.63504100  1
  O  O38  1  0.27262500  0.32236900  0.87358300  1
  O  O39  1  0.72737500  0.67763100  0.12641700  1
  O  O40  1  0.84416700  0.12491200  0.19893000  1
  O  O41  1  0.15583300  0.87508800  0.80107000  1
  O  O42  1  0.16769200  0.36942700  0.29925800  1
  O  O43  1  0.83230800  0.63057300  0.70074200  1
  O  O44  1  0.75497500  0.38268400  0.26306000  1
  O  O45  1  0.24502500  0.61731600  0.73694000  1
  O  O46  1  0.24576900  0.11713900  0.23949300  1
  O  O47  1  0.75423100  0.88286100  0.76050700  1
  O  O48  1  0.45385000  0.09459900  0.62534300  1
  O  O49  1  0.54615000  0.90540100  0.37465700  1
  O  O50  1  0.43495300  0.59475200  0.14923800  1
  O  O51  1  0.56504700  0.40524800  0.85076200  1
  O  O52  1  0.56570700  0.63221800  0.41624400  1
  O  O53  1  0.43429300  0.36778200  0.58375600  1
  O  O54  1  0.42877600  0.87222800  0.08745000  1
  O  O55  1  0.57122400  0.12777200  0.91255000  1
  O  O56  1  0.59304700  0.18619600  0.36710000  1
  O  O57  1  0.40695300  0.81380400  0.63290000  1
  O  O58  1  0.47377100  0.31146200  0.07049900  1
  O  O59  1  0.52622900  0.68853800  0.92950100  1
