# generated using pymatgen
data_TaTlS3
_symmetry_space_group_name_H-M   'P 1'
_cell_length_a   3.52349300
_cell_length_b   9.42706500
_cell_length_c   14.72465400
_cell_angle_alpha   90.00000000
_cell_angle_beta   90.00000000
_cell_angle_gamma   90.00000000
_symmetry_Int_Tables_number   1
_chemical_formula_structural   TaTlS3
_chemical_formula_sum   'Ta4 Tl4 S12'
_cell_volume   489.09701594
_cell_formula_units_Z   4
loop_
 _symmetry_equiv_pos_site_id
 _symmetry_equiv_pos_as_xyz
  1  'x, y, z'
loop_
 _atom_site_type_symbol
 _atom_site_label
 _atom_site_symmetry_multiplicity
 _atom_site_fract_x
 _atom_site_fract_y
 _atom_site_fract_z
 _atom_site_occupancy
  Ta  Ta0  1  0.25000000  0.15906300  0.43038500  1
  Ta  Ta1  1  0.75000000  0.84093700  0.56961500  1
  Ta  Ta2  1  0.25000000  0.65906300  0.06961500  1
  Ta  Ta3  1  0.75000000  0.34093700  0.93038500  1
  Tl  Tl4  1  0.75000000  0.01658700  0.17254500  1
  Tl  Tl5  1  0.25000000  0.98341300  0.82745500  1
  Tl  Tl6  1  0.75000000  0.51658700  0.32745500  1
  Tl  Tl7  1  0.25000000  0.48341300  0.67254500  1
  S  S8  1  0.25000000  0.02281200  0.59619900  1
  S  S9  1  0.75000000  0.97718800  0.40380100  1
  S  S10  1  0.25000000  0.52281200  0.90380100  1
  S  S11  1  0.75000000  0.47718800  0.09619900  1
  S  S12  1  0.25000000  0.24893100  0.28809700  1
  S  S13  1  0.75000000  0.75106900  0.71190300  1
  S  S14  1  0.25000000  0.74893100  0.21190300  1
  S  S15  1  0.75000000  0.25106900  0.78809700  1
  S  S16  1  0.25000000  0.19307800  0.99841000  1
  S  S17  1  0.75000000  0.80692200  0.00159000  1
  S  S18  1  0.25000000  0.69307800  0.50159000  1
  S  S19  1  0.75000000  0.30692200  0.49841000  1
