# generated using pymatgen
data_Sr4Al14O25
_symmetry_space_group_name_H-M   'P 1'
_cell_length_a   4.93598700
_cell_length_b   8.57499200
_cell_length_c   25.02219300
_cell_angle_alpha   90.00000000
_cell_angle_beta   90.00000000
_cell_angle_gamma   90.00000000
_symmetry_Int_Tables_number   1
_chemical_formula_structural   Sr4Al14O25
_chemical_formula_sum   'Sr8 Al28 O50'
_cell_volume   1059.09056793
_cell_formula_units_Z   2
loop_
 _symmetry_equiv_pos_site_id
 _symmetry_equiv_pos_as_xyz
  1  'x, y, z'
loop_
 _atom_site_type_symbol
 _atom_site_label
 _atom_site_symmetry_multiplicity
 _atom_site_fract_x
 _atom_site_fract_y
 _atom_site_fract_z
 _atom_site_occupancy
  Sr  Sr0  1  0.11299100  0.00000000  0.62041300  1
  Sr  Sr1  1  0.11299100  0.00000000  0.87958700  1
  Sr  Sr2  1  0.88700900  0.00000000  0.37958700  1
  Sr  Sr3  1  0.88700900  0.00000000  0.12041300  1
  Sr  Sr4  1  0.04027300  0.50000000  0.63839400  1
  Sr  Sr5  1  0.04027300  0.50000000  0.86160600  1
  Sr  Sr6  1  0.95972700  0.50000000  0.36160600  1
  Sr  Sr7  1  0.95972700  0.50000000  0.13839400  1
  Al  Al8  1  0.00000000  0.50000000  0.50000000  1
  Al  Al9  1  0.00000000  0.50000000  0.00000000  1
  Al  Al10  1  0.50000000  0.00000000  0.50000000  1
  Al  Al11  1  0.50000000  0.00000000  0.00000000  1
  Al  Al12  1  0.00000000  0.83238000  0.50000000  1
  Al  Al13  1  0.00000000  0.16762000  0.00000000  1
  Al  Al14  1  0.00000000  0.16762000  0.50000000  1
  Al  Al15  1  0.00000000  0.83238000  0.00000000  1
  Al  Al16  1  0.12859100  0.29673300  0.75000000  1
  Al  Al17  1  0.12859100  0.70326700  0.75000000  1
  Al  Al18  1  0.87140900  0.29673300  0.25000000  1
  Al  Al19  1  0.87140900  0.70326700  0.25000000  1
  Al  Al20  1  0.49297900  0.67807800  0.43386500  1
  Al  Al21  1  0.49297900  0.32192200  0.06613500  1
  Al  Al22  1  0.50702100  0.67807800  0.56613500  1
  Al  Al23  1  0.50702100  0.32192200  0.93386500  1
  Al  Al24  1  0.50702100  0.32192200  0.56613500  1
  Al  Al25  1  0.50702100  0.67807800  0.93386500  1
  Al  Al26  1  0.49297900  0.32192200  0.43386500  1
  Al  Al27  1  0.49297900  0.67807800  0.06613500  1
  Al  Al28  1  0.37441200  0.80530300  0.31440300  1
  Al  Al29  1  0.37441200  0.19469700  0.18559700  1
  Al  Al30  1  0.62558800  0.80530300  0.68559700  1
  Al  Al31  1  0.62558800  0.19469700  0.81440300  1
  Al  Al32  1  0.62558800  0.19469700  0.68559700  1
  Al  Al33  1  0.62558800  0.80530300  0.81440300  1
  Al  Al34  1  0.37441200  0.19469700  0.31440300  1
  Al  Al35  1  0.37441200  0.80530300  0.18559700  1
  O  O36  1  0.11064100  0.50000000  0.75000000  1
  O  O37  1  0.88935900  0.50000000  0.25000000  1
  O  O38  1  0.15276400  0.66272100  0.45735400  1
  O  O39  1  0.15276400  0.33727900  0.04264600  1
  O  O40  1  0.84723600  0.66272100  0.54264600  1
  O  O41  1  0.84723600  0.33727900  0.95735400  1
  O  O42  1  0.84723600  0.33727900  0.54264600  1
  O  O43  1  0.84723600  0.66272100  0.95735400  1
  O  O44  1  0.15276400  0.33727900  0.45735400  1
  O  O45  1  0.15276400  0.66272100  0.04264600  1
  O  O46  1  0.57692100  0.00000000  0.66628200  1
  O  O47  1  0.57692100  0.00000000  0.83371800  1
  O  O48  1  0.42307900  0.00000000  0.33371800  1
  O  O49  1  0.42307900  0.00000000  0.16628200  1
  O  O50  1  0.32481300  0.50000000  0.55036600  1
  O  O51  1  0.32481300  0.50000000  0.94963400  1
  O  O52  1  0.67518700  0.50000000  0.44963400  1
  O  O53  1  0.67518700  0.50000000  0.05036600  1
  O  O54  1  0.82876000  0.00000000  0.53882600  1
  O  O55  1  0.82876000  0.00000000  0.96117400  1
  O  O56  1  0.17124000  0.00000000  0.46117400  1
  O  O57  1  0.17124000  0.00000000  0.03882600  1
  O  O58  1  0.47478600  0.23241300  0.75000000  1
  O  O59  1  0.47478600  0.76758700  0.75000000  1
  O  O60  1  0.52521400  0.23241300  0.25000000  1
  O  O61  1  0.52521400  0.76758700  0.25000000  1
  O  O62  1  0.02176400  0.77136500  0.30958900  1
  O  O63  1  0.02176400  0.22863500  0.19041100  1
  O  O64  1  0.97823600  0.77136500  0.69041100  1
  O  O65  1  0.97823600  0.22863500  0.80958900  1
  O  O66  1  0.97823600  0.22863500  0.69041100  1
  O  O67  1  0.97823600  0.77136500  0.80958900  1
  O  O68  1  0.02176400  0.22863500  0.30958900  1
  O  O69  1  0.02176400  0.77136500  0.19041100  1
  O  O70  1  0.49948000  0.67800900  0.36320900  1
  O  O71  1  0.49948000  0.32199100  0.13679100  1
  O  O72  1  0.67707200  0.84077600  0.04303200  1
  O  O73  1  0.67707200  0.15922400  0.45696800  1
  O  O74  1  0.32292800  0.84077600  0.95696800  1
  O  O75  1  0.32292800  0.15922400  0.54303200  1
  O  O76  1  0.32292800  0.15922400  0.95696800  1
  O  O77  1  0.32292800  0.84077600  0.54303200  1
  O  O78  1  0.67707200  0.15922400  0.04303200  1
  O  O79  1  0.67707200  0.84077600  0.45696800  1
  O  O80  1  0.49948000  0.67800900  0.13679100  1
  O  O81  1  0.49948000  0.32199100  0.36320900  1
  O  O82  1  0.50052000  0.67800900  0.86320900  1
  O  O83  1  0.50052000  0.32199100  0.63679100  1
  O  O84  1  0.50052000  0.32199100  0.86320900  1
  O  O85  1  0.50052000  0.67800900  0.63679100  1
