# generated using pymatgen
data_HgSeO3
_symmetry_space_group_name_H-M   'P 1'
_cell_length_a   9.42747400
_cell_length_b   5.03819900
_cell_length_c   7.22977438
_cell_angle_alpha   89.64550569
_cell_angle_beta   90.00000000
_cell_angle_gamma   90.00000000
_symmetry_Int_Tables_number   1
_chemical_formula_structural   HgSeO3
_chemical_formula_sum   'Hg4 Se4 O12'
_cell_volume   343.38956419
_cell_formula_units_Z   4
loop_
 _symmetry_equiv_pos_site_id
 _symmetry_equiv_pos_as_xyz
  1  'x, y, z'
loop_
 _atom_site_type_symbol
 _atom_site_label
 _atom_site_symmetry_multiplicity
 _atom_site_fract_x
 _atom_site_fract_y
 _atom_site_fract_z
 _atom_site_occupancy
  Hg  Hg0  1  0.67352900  0.21185500  0.03668200  1
  Hg  Hg1  1  0.17352900  0.78814500  0.46331800  1
  Hg  Hg2  1  0.32647100  0.78814500  0.96331800  1
  Hg  Hg3  1  0.82647100  0.21185500  0.53668200  1
  Se  Se4  1  0.05902100  0.24759700  0.18461900  1
  Se  Se5  1  0.55902100  0.75240300  0.31538100  1
  Se  Se6  1  0.94097900  0.75240300  0.81538100  1
  Se  Se7  1  0.44097900  0.24759700  0.68461900  1
  O  O8  1  0.12983800  0.30694200  0.39879600  1
  O  O9  1  0.62983800  0.69305800  0.10120400  1
  O  O10  1  0.87016200  0.69305800  0.60120400  1
  O  O11  1  0.37016200  0.30694200  0.89879600  1
  O  O12  1  0.87654300  0.26105500  0.23990100  1
  O  O13  1  0.37654300  0.73894500  0.26009900  1
  O  O14  1  0.12345700  0.73894500  0.76009900  1
  O  O15  1  0.62345700  0.26105500  0.73990100  1
  O  O16  1  0.90600800  0.09129900  0.82693000  1
  O  O17  1  0.40600800  0.90870100  0.67307000  1
  O  O18  1  0.09399200  0.90870100  0.17307000  1
  O  O19  1  0.59399200  0.09129900  0.32693000  1
