# generated using pymatgen
data_TiO2
_symmetry_space_group_name_H-M   'P 1'
_cell_length_a   5.61627763
_cell_length_b   5.61627763
_cell_length_c   6.12683000
_cell_angle_alpha   90.00000000
_cell_angle_beta   90.00000000
_cell_angle_gamma   119.99999569
_symmetry_Int_Tables_number   1
_chemical_formula_structural   TiO2
_chemical_formula_sum   'Ti3 O6'
_cell_volume   167.36460533
_cell_formula_units_Z   3
loop_
 _symmetry_equiv_pos_site_id
 _symmetry_equiv_pos_as_xyz
  1  'x, y, z'
loop_
 _atom_site_type_symbol
 _atom_site_label
 _atom_site_symmetry_multiplicity
 _atom_site_fract_x
 _atom_site_fract_y
 _atom_site_fract_z
 _atom_site_occupancy
  Ti  Ti0  1  0.53327300  0.53327300  0.00000000  1
  Ti  Ti1  1  0.00000000  0.46672700  0.66666700  1
  Ti  Ti2  1  0.46672700  0.00000000  0.33333300  1
  O  O3  1  0.41977400  0.27098700  0.21259100  1
  O  O4  1  0.14878700  0.72901300  0.45407600  1
  O  O5  1  0.85121300  0.58022600  0.87925800  1
  O  O6  1  0.27098700  0.41977400  0.78740900  1
  O  O7  1  0.72901300  0.14878700  0.54592400  1
  O  O8  1  0.58022600  0.85121300  0.12074200  1
