# generated using pymatgen
data_ZnS
_symmetry_space_group_name_H-M   'P 1'
_cell_length_a   3.85196788
_cell_length_b   3.85196788
_cell_length_c   81.88390600
_cell_angle_alpha   90.00000000
_cell_angle_beta   90.00000000
_cell_angle_gamma   119.99999788
_symmetry_Int_Tables_number   1
_chemical_formula_structural   ZnS
_chemical_formula_sum   'Zn26 S26'
_cell_volume   1052.19081266
_cell_formula_units_Z   26
loop_
 _symmetry_equiv_pos_site_id
 _symmetry_equiv_pos_as_xyz
  1  'x, y, z'
loop_
 _atom_site_type_symbol
 _atom_site_label
 _atom_site_symmetry_multiplicity
 _atom_site_fract_x
 _atom_site_fract_y
 _atom_site_fract_z
 _atom_site_occupancy
  Zn  Zn0  1  0.00000000  0.00000000  0.69232600  1
  Zn  Zn1  1  0.33333300  0.66666700  0.11539200  1
  Zn  Zn2  1  0.00000000  0.00000000  0.46155400  1
  Zn  Zn3  1  0.66666700  0.33333300  0.76923900  1
  Zn  Zn4  1  0.66666700  0.33333300  0.65385300  1
  Zn  Zn5  1  0.33333300  0.66666700  0.23077700  1
  Zn  Zn6  1  0.00000000  0.00000000  0.96154200  1
  Zn  Zn7  1  0.66666700  0.33333300  0.88462700  1
  Zn  Zn8  1  0.66666700  0.33333300  0.03847200  1
  Zn  Zn9  1  0.00000000  0.00000000  0.19231300  1
  Zn  Zn10  1  0.33333300  0.66666700  0.80771000  1
  Zn  Zn11  1  0.33333300  0.66666700  0.73077500  1
  Zn  Zn12  1  0.00000000  0.00000000  0.07693100  1
  Zn  Zn13  1  0.66666700  0.33333300  0.42308400  1
  Zn  Zn14  1  0.00000000  0.00000000  0.84616300  1
  Zn  Zn15  1  0.33333300  0.66666700  0.57694000  1
  Zn  Zn16  1  0.66666700  0.33333300  0.53847000  1
  Zn  Zn17  1  0.33333300  0.66666700  0.00001800  1
  Zn  Zn18  1  0.66666700  0.33333300  0.30770100  1
  Zn  Zn19  1  0.66666700  0.33333300  0.15385600  1
  Zn  Zn20  1  0.00000000  0.00000000  0.26925100  1
  Zn  Zn21  1  0.33333300  0.66666700  0.92308400  1
  Zn  Zn22  1  0.00000000  0.00000000  0.61538800  1
  Zn  Zn23  1  0.33333300  0.66666700  0.50000500  1
  Zn  Zn24  1  0.00000000  0.00000000  0.38462300  1
  Zn  Zn25  1  0.33333300  0.66666700  0.34616400  1
  S  S26  1  0.33333300  0.66666700  0.02883900  1
  S  S27  1  0.33333300  0.66666700  0.75958500  1
  S  S28  1  0.66666700  0.33333300  0.68270400  1
  S  S29  1  0.66666700  0.33333300  0.33653000  1
  S  S30  1  0.00000000  0.00000000  0.22112300  1
  S  S31  1  0.66666700  0.33333300  0.79808700  1
  S  S32  1  0.00000000  0.00000000  0.72114300  1
  S  S33  1  0.33333300  0.66666700  0.60575900  1
  S  S34  1  0.66666700  0.33333300  0.06729500  1
  S  S35  1  0.66666700  0.33333300  0.91345300  1
  S  S36  1  0.66666700  0.33333300  0.45193300  1
  S  S37  1  0.00000000  0.00000000  0.10575900  1
  S  S38  1  0.00000000  0.00000000  0.87499200  1
  S  S39  1  0.00000000  0.00000000  0.29806500  1
  S  S40  1  0.33333300  0.66666700  0.95189100  1
  S  S41  1  0.00000000  0.00000000  0.49037000  1
  S  S42  1  0.00000000  0.00000000  0.99039400  1
  S  S43  1  0.66666700  0.33333300  0.18268300  1
  S  S44  1  0.33333300  0.66666700  0.83652800  1
  S  S45  1  0.33333300  0.66666700  0.25963000  1
  S  S46  1  0.00000000  0.00000000  0.41343100  1
  S  S47  1  0.33333300  0.66666700  0.14422300  1
  S  S48  1  0.33333300  0.66666700  0.52881700  1
  S  S49  1  0.66666700  0.33333300  0.56732000  1
  S  S50  1  0.33333300  0.66666700  0.37499100  1
  S  S51  1  0.00000000  0.00000000  0.64419700  1
