# generated using pymatgen
data_ZnS
_symmetry_space_group_name_H-M   'P 1'
_cell_length_a   3.85291675
_cell_length_b   3.85291675
_cell_length_c   75.59097700
_cell_angle_alpha   90.00000000
_cell_angle_beta   90.00000000
_cell_angle_gamma   120.00001287
_symmetry_Int_Tables_number   1
_chemical_formula_structural   ZnS
_chemical_formula_sum   'Zn24 S24'
_cell_volume   971.80646616
_cell_formula_units_Z   24
loop_
 _symmetry_equiv_pos_site_id
 _symmetry_equiv_pos_as_xyz
  1  'x, y, z'
loop_
 _atom_site_type_symbol
 _atom_site_label
 _atom_site_symmetry_multiplicity
 _atom_site_fract_x
 _atom_site_fract_y
 _atom_site_fract_z
 _atom_site_occupancy
  Zn  Zn0  1  0.00000000  0.00000000  0.33335300  1
  Zn  Zn1  1  0.00000000  0.00000000  0.00000600  1
  Zn  Zn2  1  0.33333300  0.66666700  0.29167700  1
  Zn  Zn3  1  0.66666700  0.33333300  0.08334100  1
  Zn  Zn4  1  0.33333300  0.66666700  0.83334200  1
  Zn  Zn5  1  0.00000000  0.00000000  0.66667500  1
  Zn  Zn6  1  0.66666700  0.33333300  0.50000700  1
  Zn  Zn7  1  0.66666700  0.33333300  0.91668000  1
  Zn  Zn8  1  0.66666700  0.33333300  0.20834200  1
  Zn  Zn9  1  0.66666700  0.33333300  0.62501000  1
  Zn  Zn10  1  0.00000000  0.00000000  0.54168900  1
  Zn  Zn11  1  0.33333300  0.66666700  0.04169000  1
  Zn  Zn12  1  0.00000000  0.00000000  0.12500900  1
  Zn  Zn13  1  0.33333300  0.66666700  0.16668000  1
  Zn  Zn14  1  0.33333300  0.66666700  0.41668000  1
  Zn  Zn15  1  0.33333300  0.66666700  0.70833800  1
  Zn  Zn16  1  0.33333300  0.66666700  0.95833700  1
  Zn  Zn17  1  0.00000000  0.00000000  0.45833800  1
  Zn  Zn18  1  0.33333300  0.66666700  0.58334100  1
  Zn  Zn19  1  0.00000000  0.00000000  0.87501000  1
  Zn  Zn20  1  0.66666700  0.33333300  0.79167900  1
  Zn  Zn21  1  0.66666700  0.33333300  0.37500900  1
  Zn  Zn22  1  0.00000000  0.00000000  0.75001900  1
  Zn  Zn23  1  0.00000000  0.00000000  0.25000500  1
  S  S24  1  0.66666700  0.33333300  0.94790700  1
  S  S25  1  0.00000000  0.00000000  0.57290600  1
  S  S26  1  0.33333300  0.66666700  0.19790800  1
  S  S27  1  0.33333300  0.66666700  0.98954700  1
  S  S28  1  0.00000000  0.00000000  0.36457000  1
  S  S29  1  0.00000000  0.00000000  0.48954800  1
  S  S30  1  0.66666700  0.33333300  0.53126500  1
  S  S31  1  0.00000000  0.00000000  0.78123800  1
  S  S32  1  0.66666700  0.33333300  0.82290700  1
  S  S33  1  0.33333300  0.66666700  0.44790800  1
  S  S34  1  0.66666700  0.33333300  0.23956900  1
  S  S35  1  0.66666700  0.33333300  0.11457000  1
  S  S36  1  0.00000000  0.00000000  0.03126500  1
  S  S37  1  0.33333300  0.66666700  0.73959500  1
  S  S38  1  0.00000000  0.00000000  0.15624000  1
  S  S39  1  0.33333300  0.66666700  0.86457000  1
  S  S40  1  0.66666700  0.33333300  0.65623900  1
  S  S41  1  0.33333300  0.66666700  0.61457000  1
  S  S42  1  0.00000000  0.00000000  0.28121600  1
  S  S43  1  0.33333300  0.66666700  0.07290700  1
  S  S44  1  0.00000000  0.00000000  0.69788400  1
  S  S45  1  0.66666700  0.33333300  0.40624000  1
  S  S46  1  0.33333300  0.66666700  0.32293400  1
  S  S47  1  0.00000000  0.00000000  0.90624000  1
