# generated using pymatgen
data_K2Ag4Pd3(NO2)12
_symmetry_space_group_name_H-M   'P 1'
_cell_length_a   24.07771700
_cell_length_b   7.33485800
_cell_length_c   9.83958692
_cell_angle_alpha   51.72669687
_cell_angle_beta   90.00000000
_cell_angle_gamma   90.00000000
_symmetry_Int_Tables_number   1
_chemical_formula_structural   K2Ag4Pd3(NO2)12
_chemical_formula_sum   'K4 Ag8 Pd6 N24 O48'
_cell_volume   1364.23610032
_cell_formula_units_Z   2
loop_
 _symmetry_equiv_pos_site_id
 _symmetry_equiv_pos_as_xyz
  1  'x, y, z'
loop_
 _atom_site_type_symbol
 _atom_site_label
 _atom_site_symmetry_multiplicity
 _atom_site_fract_x
 _atom_site_fract_y
 _atom_site_fract_z
 _atom_site_occupancy
  K  K0  1  0.13406500  0.32625900  0.57707500  1
  K  K1  1  0.86593500  0.67374100  0.42292500  1
  K  K2  1  0.36593500  0.32625900  0.07707500  1
  K  K3  1  0.63406500  0.67374100  0.92292500  1
  Ag  Ag4  1  0.52644200  0.23523000  0.39146700  1
  Ag  Ag5  1  0.02644200  0.76477000  0.10853300  1
  Ag  Ag6  1  0.97355800  0.23523000  0.89146700  1
  Ag  Ag7  1  0.68126100  0.43369300  0.67521300  1
  Ag  Ag8  1  0.18126100  0.56630700  0.82478700  1
  Ag  Ag9  1  0.47355800  0.76477000  0.60853300  1
  Ag  Ag10  1  0.31873900  0.56630700  0.32478700  1
  Ag  Ag11  1  0.81873900  0.43369300  0.17521300  1
  Pd  Pd12  1  0.32388100  0.16243400  0.72535800  1
  Pd  Pd13  1  0.82388100  0.83756600  0.77464200  1
  Pd  Pd14  1  0.17611900  0.16243400  0.22535800  1
  Pd  Pd15  1  0.00000000  0.00000000  0.50000000  1
  Pd  Pd16  1  0.67611900  0.83756600  0.27464200  1
  Pd  Pd17  1  0.50000000  0.00000000  0.00000000  1
  N  N18  1  0.06774400  0.78092100  0.59965400  1
  N  N19  1  0.50564900  0.01620700  0.78185200  1
  N  N20  1  0.99435100  0.01620700  0.28185200  1
  N  N21  1  0.23397000  0.91093900  0.29912300  1
  N  N22  1  0.61648300  0.58790200  0.34286500  1
  N  N23  1  0.11648300  0.41209800  0.15713500  1
  N  N24  1  0.23002300  0.31803400  0.28915700  1
  N  N25  1  0.76997700  0.68196600  0.71084300  1
  N  N26  1  0.56774400  0.21907900  0.90034600  1
  N  N27  1  0.62319100  0.98971000  0.34548400  1
  N  N28  1  0.12319100  0.01029000  0.15451600  1
  N  N29  1  0.26603000  0.91093900  0.79912300  1
  N  N30  1  0.26997700  0.31803400  0.78915700  1
  N  N31  1  0.76603000  0.08906100  0.70087700  1
  N  N32  1  0.93225600  0.21907900  0.40034600  1
  N  N33  1  0.37680900  0.01029000  0.65451600  1
  N  N34  1  0.43225600  0.78092100  0.09965400  1
  N  N35  1  0.88351700  0.58790200  0.84286500  1
  N  N36  1  0.49435100  0.98379300  0.21814800  1
  N  N37  1  0.73397000  0.08906100  0.20087700  1
  N  N38  1  0.73002300  0.68196600  0.21084300  1
  N  N39  1  0.87680900  0.98971000  0.84548400  1
  N  N40  1  0.38351700  0.41209800  0.65713500  1
  N  N41  1  0.00564900  0.98379300  0.71814800  1
  O  O42  1  0.61152600  0.41652600  0.49974400  1
  O  O43  1  0.50796000  0.80188500  0.36325200  1
  O  O44  1  0.22540000  0.95218600  0.70419600  1
  O  O45  1  0.88847400  0.41652600  0.99974400  1
  O  O46  1  0.38847400  0.58347400  0.50025600  1
  O  O47  1  0.08722600  0.40060000  0.26712700  1
  O  O48  1  0.77245800  0.28277600  0.55881200  1
  O  O49  1  0.58722600  0.59940000  0.23287300  1
  O  O50  1  0.72754200  0.28277600  0.05881200  1
  O  O51  1  0.10171600  0.81643200  0.26980200  1
  O  O52  1  0.39828400  0.81643200  0.76980200  1
  O  O53  1  0.91277400  0.59940000  0.73287300  1
  O  O54  1  0.77460000  0.04781400  0.29580400  1
  O  O55  1  0.88654000  0.14077200  0.39502400  1
  O  O56  1  0.38882500  0.11538900  0.49983200  1
  O  O57  1  0.52397000  0.84504700  0.79621000  1
  O  O58  1  0.22754200  0.71722400  0.44118800  1
  O  O59  1  0.38654000  0.85922800  0.10497600  1
  O  O60  1  0.06290400  0.57482200  0.65944900  1
  O  O61  1  0.60171600  0.18356800  0.23019800  1
  O  O62  1  0.56290400  0.42517800  0.84055100  1
  O  O63  1  0.49204000  0.19811500  0.63674800  1
  O  O64  1  0.47603000  0.15495300  0.20379000  1
  O  O65  1  0.02397000  0.15495300  0.70379000  1
  O  O66  1  0.28169600  0.29139200  0.29065800  1
  O  O67  1  0.61346000  0.14077200  0.89502400  1
  O  O68  1  0.71185000  0.55212600  0.18004700  1
  O  O69  1  0.27460000  0.95218600  0.20419600  1
  O  O70  1  0.72540000  0.04781400  0.79580400  1
  O  O71  1  0.71830400  0.70860800  0.70934200  1
  O  O72  1  0.99204000  0.80188500  0.86325200  1
  O  O73  1  0.93709600  0.42517800  0.34055100  1
  O  O74  1  0.78169600  0.70860800  0.20934200  1
  O  O75  1  0.27245800  0.71722400  0.94118800  1
  O  O76  1  0.61117500  0.88461100  0.50016800  1
  O  O77  1  0.43709600  0.57482200  0.15944900  1
  O  O78  1  0.21830400  0.29139200  0.79065800  1
  O  O79  1  0.97603000  0.84504700  0.29621000  1
  O  O80  1  0.00796000  0.19811500  0.13674800  1
  O  O81  1  0.28815000  0.44787400  0.81995300  1
  O  O82  1  0.41277400  0.40060000  0.76712700  1
  O  O83  1  0.11152600  0.58347400  0.00025600  1
  O  O84  1  0.11117500  0.11538900  0.99983200  1
  O  O85  1  0.88882500  0.88461100  0.00016800  1
  O  O86  1  0.89828400  0.18356800  0.73019800  1
  O  O87  1  0.11346000  0.85922800  0.60497600  1
  O  O88  1  0.21185000  0.44787400  0.31995300  1
  O  O89  1  0.78815000  0.55212600  0.68004700  1
