# generated using pymatgen
data_Ti(GaO2)4
_symmetry_space_group_name_H-M   'P 1'
_cell_length_a   6.40533030
_cell_length_b   6.40533030
_cell_length_c   9.60691563
_cell_angle_alpha   56.70556159
_cell_angle_beta   56.70556159
_cell_angle_gamma   27.60966078
_symmetry_Int_Tables_number   1
_chemical_formula_structural   Ti(GaO2)4
_chemical_formula_sum   'Ti1 Ga4 O8'
_cell_volume   150.68502899
_cell_formula_units_Z   1
loop_
 _symmetry_equiv_pos_site_id
 _symmetry_equiv_pos_as_xyz
  1  'x, y, z'
loop_
 _atom_site_type_symbol
 _atom_site_label
 _atom_site_symmetry_multiplicity
 _atom_site_fract_x
 _atom_site_fract_y
 _atom_site_fract_z
 _atom_site_occupancy
  Ti  Ti0  1  0.00000000  0.00000000  0.00000000  1
  Ga  Ga1  1  0.46428500  0.46428500  0.71202000  1
  Ga  Ga2  1  0.24064900  0.24064900  0.36258200  1
  Ga  Ga3  1  0.75935100  0.75935100  0.63741800  1
  Ga  Ga4  1  0.53571500  0.53571500  0.28798000  1
  O  O5  1  0.10773400  0.10773400  0.30972300  1
  O  O6  1  0.44526300  0.44526300  0.91885900  1
  O  O7  1  0.55473700  0.55473700  0.08114100  1
  O  O8  1  0.16669800  0.16669800  0.78174300  1
  O  O9  1  0.89226600  0.89226600  0.69027700  1
  O  O10  1  0.35448300  0.35448300  0.45925200  1
  O  O11  1  0.64551700  0.64551700  0.54074800  1
  O  O12  1  0.83330200  0.83330200  0.21825700  1
