# generated using pymatgen
data_SrCaSiO4
_symmetry_space_group_name_H-M   'P 1'
_cell_length_a   5.65959500
_cell_length_b   9.47045600
_cell_length_c   21.07963800
_cell_angle_alpha   90.00000000
_cell_angle_beta   90.00000000
_cell_angle_gamma   90.00000000
_symmetry_Int_Tables_number   1
_chemical_formula_structural   SrCaSiO4
_chemical_formula_sum   'Sr12 Ca12 Si12 O48'
_cell_volume   1129.84636675
_cell_formula_units_Z   12
loop_
 _symmetry_equiv_pos_site_id
 _symmetry_equiv_pos_as_xyz
  1  'x, y, z'
loop_
 _atom_site_type_symbol
 _atom_site_label
 _atom_site_symmetry_multiplicity
 _atom_site_fract_x
 _atom_site_fract_y
 _atom_site_fract_z
 _atom_site_occupancy
  Sr  Sr0  1  0.73756900  0.42141900  0.38985000  1
  Sr  Sr1  1  0.21315900  0.57508900  0.94364400  1
  Sr  Sr2  1  0.73756900  0.07858100  0.88985000  1
  Sr  Sr3  1  0.23756900  0.57858100  0.61015000  1
  Sr  Sr4  1  0.25317200  0.92465100  0.77790400  1
  Sr  Sr5  1  0.25317200  0.57534900  0.27790400  1
  Sr  Sr6  1  0.71315900  0.07508900  0.55635600  1
  Sr  Sr7  1  0.71315900  0.42491100  0.05635600  1
  Sr  Sr8  1  0.75317200  0.42465100  0.72209600  1
  Sr  Sr9  1  0.75317200  0.07534900  0.22209600  1
  Sr  Sr10  1  0.21315900  0.92491100  0.44364400  1
  Sr  Sr11  1  0.23756900  0.92141900  0.11015000  1
  Ca  Ca12  1  0.75317400  0.79550500  0.33515300  1
  Ca  Ca13  1  0.25317400  0.29550500  0.16484700  1
  Ca  Ca14  1  0.74727200  0.70244800  0.16842900  1
  Ca  Ca15  1  0.71038200  0.79925600  0.00278200  1
  Ca  Ca16  1  0.24727200  0.20244800  0.33157100  1
  Ca  Ca17  1  0.74727200  0.79755200  0.66842900  1
  Ca  Ca18  1  0.25317400  0.20449500  0.66484700  1
  Ca  Ca19  1  0.75317400  0.70449500  0.83515300  1
  Ca  Ca20  1  0.24727200  0.29755200  0.83157100  1
  Ca  Ca21  1  0.71038200  0.70074400  0.50278200  1
  Ca  Ca22  1  0.21038200  0.29925600  0.49721800  1
  Ca  Ca23  1  0.21038200  0.20074400  0.99721800  1
  Si  Si24  1  0.74207700  0.41381600  0.57353500  1
  Si  Si25  1  0.24479500  0.91585000  0.25846200  1
  Si  Si26  1  0.21329200  0.58416600  0.09369000  1
  Si  Si27  1  0.24207700  0.58618400  0.42646500  1
  Si  Si28  1  0.24207700  0.91381600  0.92646500  1
  Si  Si29  1  0.74479500  0.08415000  0.74153800  1
  Si  Si30  1  0.21329200  0.91583400  0.59369000  1
  Si  Si31  1  0.71329200  0.41583400  0.90631000  1
  Si  Si32  1  0.71329200  0.08416600  0.40631000  1
  Si  Si33  1  0.24479500  0.58415000  0.75846200  1
  Si  Si34  1  0.74479500  0.41585000  0.24153800  1
  Si  Si35  1  0.74207700  0.08618400  0.07353500  1
  O  O36  1  0.97466000  0.16786500  0.10433400  1
  O  O37  1  0.21081900  0.43676100  0.05081400  1
  O  O38  1  0.79408300  0.93427600  0.78046600  1
  O  O39  1  0.97159100  0.30867200  0.25258300  1
  O  O40  1  0.67765500  0.05088300  0.66793600  1
  O  O41  1  0.17765500  0.94911700  0.33206400  1
  O  O42  1  0.50636700  0.34281600  0.27324600  1
  O  O43  1  0.47466000  0.66786500  0.39566600  1
  O  O44  1  0.21081900  0.06323900  0.55081400  1
  O  O45  1  0.00636700  0.65718400  0.72675400  1
  O  O46  1  0.81329100  0.44900100  0.50028400  1
  O  O47  1  0.31329100  0.94900100  0.99971600  1
  O  O48  1  0.17765500  0.55088300  0.83206400  1
  O  O49  1  0.71081900  0.93676100  0.44918600  1
  O  O50  1  0.50617900  0.18656300  0.08271300  1
  O  O51  1  0.48926400  0.18473600  0.42884400  1
  O  O52  1  0.00617900  0.81343700  0.91728700  1
  O  O53  1  0.70092100  0.56327100  0.61288800  1
  O  O54  1  0.17686300  0.95626100  0.66790100  1
  O  O55  1  0.31329100  0.55099900  0.49971600  1
  O  O56  1  0.00617900  0.68656300  0.41728700  1
  O  O57  1  0.48926400  0.31526400  0.92884400  1
  O  O58  1  0.46141500  0.66965900  0.07878300  1
  O  O59  1  0.47159100  0.69132800  0.74741700  1
  O  O60  1  0.29408300  0.06572400  0.21953400  1
  O  O61  1  0.20092100  0.43672900  0.38711200  1
  O  O62  1  0.96141500  0.33034100  0.92121700  1
  O  O63  1  0.97466000  0.33213500  0.60433400  1
  O  O64  1  0.71081900  0.56323900  0.94918600  1
  O  O65  1  0.81329100  0.05099900  0.00028400  1
  O  O66  1  0.97159100  0.19132800  0.75258300  1
  O  O67  1  0.47466000  0.83213500  0.89566600  1
  O  O68  1  0.98926400  0.81526400  0.57115600  1
  O  O69  1  0.98926400  0.68473600  0.07115600  1
  O  O70  1  0.46141500  0.83034100  0.57878300  1
  O  O71  1  0.70092100  0.93672900  0.11288800  1
  O  O72  1  0.47159100  0.80867200  0.24741700  1
  O  O73  1  0.67765500  0.44911700  0.16793600  1
  O  O74  1  0.79408300  0.56572400  0.28046600  1
  O  O75  1  0.50617900  0.31343700  0.58271300  1
  O  O76  1  0.67686300  0.45626100  0.83209900  1
  O  O77  1  0.67686300  0.04373900  0.33209900  1
  O  O78  1  0.00636700  0.84281600  0.22675400  1
  O  O79  1  0.17686300  0.54373900  0.16790100  1
  O  O80  1  0.96141500  0.16965900  0.42121700  1
  O  O81  1  0.29408300  0.43427600  0.71953400  1
  O  O82  1  0.50636700  0.15718400  0.77324600  1
  O  O83  1  0.20092100  0.06327100  0.88711200  1
