# generated using pymatgen
data_Na6Si8O19
_symmetry_space_group_name_H-M   'P 1'
_cell_length_a   23.75993300
_cell_length_b   4.96280600
_cell_length_c   15.58769449
_cell_angle_alpha   89.88484006
_cell_angle_beta   90.00000000
_cell_angle_gamma   90.00000000
_symmetry_Int_Tables_number   1
_chemical_formula_structural   Na6Si8O19
_chemical_formula_sum   'Na24 Si32 O76'
_cell_volume   1838.03390468
_cell_formula_units_Z   4
loop_
 _symmetry_equiv_pos_site_id
 _symmetry_equiv_pos_as_xyz
  1  'x, y, z'
loop_
 _atom_site_type_symbol
 _atom_site_label
 _atom_site_symmetry_multiplicity
 _atom_site_fract_x
 _atom_site_fract_y
 _atom_site_fract_z
 _atom_site_occupancy
  Na  Na0  1  0.22905800  0.26040800  0.50762200  1
  Na  Na1  1  0.48337700  0.76605100  0.57239300  1
  Na  Na2  1  0.04992300  0.26080100  0.47205300  1
  Na  Na3  1  0.40043400  0.23719300  0.60531500  1
  Na  Na4  1  0.63887200  0.26439500  0.04319400  1
  Na  Na5  1  0.98337700  0.23394900  0.92760700  1
  Na  Na6  1  0.54992300  0.73919900  0.02794700  1
  Na  Na7  1  0.72905800  0.73959200  0.99237800  1
  Na  Na8  1  0.81994900  0.26510400  0.96796300  1
  Na  Na9  1  0.45007700  0.26080100  0.97205300  1
  Na  Na10  1  0.90043400  0.76280700  0.89468500  1
  Na  Na11  1  0.27094200  0.26040800  0.00762200  1
  Na  Na12  1  0.59956600  0.76280700  0.39468500  1
  Na  Na13  1  0.86112800  0.26439500  0.54319400  1
  Na  Na14  1  0.95007700  0.73919900  0.52794700  1
  Na  Na15  1  0.09956600  0.23719300  0.10531500  1
  Na  Na16  1  0.51662300  0.23394900  0.42760700  1
  Na  Na17  1  0.18005100  0.73489600  0.03203700  1
  Na  Na18  1  0.77094200  0.73959200  0.49237800  1
  Na  Na19  1  0.68005100  0.26510400  0.46796300  1
  Na  Na20  1  0.31994900  0.73489600  0.53203700  1
  Na  Na21  1  0.01662300  0.76605100  0.07239300  1
  Na  Na22  1  0.36112800  0.73560500  0.95680600  1
  Na  Na23  1  0.13887200  0.73560500  0.45680600  1
  Si  Si24  1  0.28399800  0.29513000  0.25214100  1
  Si  Si25  1  0.80588800  0.20265200  0.36191900  1
  Si  Si26  1  0.39494200  0.69869900  0.73381600  1
  Si  Si27  1  0.71600200  0.70487000  0.74785900  1
  Si  Si28  1  0.63545500  0.80305300  0.58851200  1
  Si  Si29  1  0.49314700  0.78985900  0.85662700  1
  Si  Si30  1  0.00685300  0.78985900  0.35662700  1
  Si  Si31  1  0.56600000  0.29955700  0.82581600  1
  Si  Si32  1  0.06600000  0.70044300  0.67418400  1
  Si  Si33  1  0.06165700  0.69745700  0.87988300  1
  Si  Si34  1  0.93400000  0.29955700  0.32581600  1
  Si  Si35  1  0.65856100  0.80172300  0.17713600  1
  Si  Si36  1  0.36454500  0.19694700  0.41148800  1
  Si  Si37  1  0.99314700  0.21014100  0.64337300  1
  Si  Si38  1  0.50685300  0.21014100  0.14337300  1
  Si  Si39  1  0.69411200  0.20265200  0.86191900  1
  Si  Si40  1  0.93834300  0.30254300  0.12011700  1
  Si  Si41  1  0.30588800  0.79734800  0.13808100  1
  Si  Si42  1  0.89494200  0.30130100  0.76618400  1
  Si  Si43  1  0.56165700  0.30254300  0.62011700  1
  Si  Si44  1  0.43834300  0.69745700  0.37988300  1
  Si  Si45  1  0.60505800  0.30130100  0.26618400  1
  Si  Si46  1  0.34143900  0.19827700  0.82286400  1
  Si  Si47  1  0.86454500  0.80305300  0.08851200  1
  Si  Si48  1  0.84143900  0.80172300  0.67713600  1
  Si  Si49  1  0.13545500  0.19694700  0.91148800  1
  Si  Si50  1  0.15856100  0.19827700  0.32286400  1
  Si  Si51  1  0.43400000  0.70044300  0.17418400  1
  Si  Si52  1  0.19411200  0.79734800  0.63808100  1
  Si  Si53  1  0.21600200  0.29513000  0.75214100  1
  Si  Si54  1  0.10505800  0.69869900  0.23381600  1
  Si  Si55  1  0.78399800  0.70487000  0.24785900  1
  O  O56  1  0.17370200  0.26471500  0.99297600  1
  O  O57  1  0.07108600  0.72915800  0.77667900  1
  O  O58  1  0.51453500  0.10843700  0.85985600  1
  O  O59  1  0.95781900  0.26652400  0.55842500  1
  O  O60  1  0.85426500  0.12088000  0.70220000  1
  O  O61  1  0.32629800  0.26471500  0.49297600  1
  O  O62  1  0.96112100  0.26102200  0.73535800  1
  O  O63  1  0.22200300  0.72979100  0.54738200  1
  O  O64  1  0.42891400  0.72915800  0.27667900  1
  O  O65  1  0.01453500  0.89156300  0.64014400  1
  O  O66  1  0.33521300  0.22243700  0.31672100  1
  O  O67  1  0.60894600  0.24153700  0.36681500  1
  O  O68  1  0.27799700  0.72979100  0.04738200  1
  O  O69  1  0.87790100  0.62122900  0.74750200  1
  O  O70  1  0.42258800  0.38260000  0.40712300  1
  O  O71  1  0.57108600  0.27084200  0.72332100  1
  O  O72  1  0.77799700  0.27020900  0.45261800  1
  O  O73  1  0.85479900  0.74827200  0.57800300  1
  O  O74  1  0.62209900  0.62122900  0.24750200  1
  O  O75  1  0.67370200  0.73528500  0.50702400  1
  O  O76  1  0.71221400  0.39258900  0.77990000  1
  O  O77  1  0.83521300  0.77756300  0.18327900  1
  O  O78  1  0.55216600  0.60916000  0.85524700  1
  O  O79  1  0.57741200  0.61740000  0.59287700  1
  O  O80  1  0.64520100  0.74827200  0.07800300  1
  O  O81  1  0.92891400  0.27084200  0.22332100  1
  O  O82  1  0.53887900  0.26102200  0.23535800  1
  O  O83  1  0.27430600  0.24982500  0.80371700  1
  O  O84  1  0.62457900  0.21248200  0.87310700  1
  O  O85  1  0.71164700  0.89042600  0.83471000  1
  O  O86  1  0.82629800  0.73528500  0.00702400  1
  O  O87  1  0.66478700  0.77756300  0.68327900  1
  O  O88  1  0.11215400  0.88360100  0.92376500  1
  O  O89  1  0.28778600  0.60741100  0.22010000  1
  O  O90  1  0.46112100  0.73897800  0.76464200  1
  O  O91  1  0.99968900  0.23796700  0.08372500  1
  O  O92  1  0.39105400  0.75846300  0.63318500  1
  O  O93  1  0.37790100  0.37877100  0.75249800  1
  O  O94  1  0.77430600  0.75017500  0.69628300  1
  O  O95  1  0.35426500  0.87912000  0.79780000  1
  O  O96  1  0.12209900  0.37877100  0.25249800  1
  O  O97  1  0.38784600  0.88360100  0.42376500  1
  O  O98  1  0.00031100  0.76203300  0.91627500  1
  O  O99  1  0.50031100  0.23796700  0.58372500  1
  O  O100  1  0.72569400  0.75017500  0.19628300  1
  O  O101  1  0.14573500  0.87912000  0.29780000  1
  O  O102  1  0.94783400  0.60916000  0.35524700  1
  O  O103  1  0.72200300  0.27020900  0.95261800  1
  O  O104  1  0.88784600  0.11639900  0.07623500  1
  O  O105  1  0.78835300  0.89042600  0.33471000  1
  O  O106  1  0.16478700  0.22243700  0.81672100  1
  O  O107  1  0.45781900  0.73347600  0.94157500  1
  O  O108  1  0.07741200  0.38260000  0.90712300  1
  O  O109  1  0.64573500  0.12088000  0.20220000  1
  O  O110  1  0.10894600  0.75846300  0.13318500  1
  O  O111  1  0.98546500  0.10843700  0.35985600  1
  O  O112  1  0.14520100  0.25172800  0.42199700  1
  O  O113  1  0.21164700  0.10957400  0.66529000  1
  O  O114  1  0.87542100  0.21248200  0.37310700  1
  O  O115  1  0.78778600  0.39258900  0.27990000  1
  O  O116  1  0.12457900  0.78751800  0.62689300  1
  O  O117  1  0.37542100  0.78751800  0.12689300  1
  O  O118  1  0.54218100  0.26652400  0.05842500  1
  O  O119  1  0.04218100  0.73347600  0.44157500  1
  O  O120  1  0.35479900  0.25172800  0.92199700  1
  O  O121  1  0.49968900  0.76203300  0.41627500  1
  O  O122  1  0.22569400  0.24982500  0.30371700  1
  O  O123  1  0.44783400  0.39084000  0.14475300  1
  O  O124  1  0.89105400  0.24153700  0.86681500  1
  O  O125  1  0.61215400  0.11639900  0.57623500  1
  O  O126  1  0.48546500  0.89156300  0.14014400  1
  O  O127  1  0.28835300  0.10957400  0.16529000  1
  O  O128  1  0.21221400  0.60741100  0.72010000  1
  O  O129  1  0.05216600  0.39084000  0.64475300  1
  O  O130  1  0.92258800  0.61740000  0.09287700  1
  O  O131  1  0.03887900  0.73897800  0.26464200  1
