# generated using pymatgen
data_BaPb2BrF5
_symmetry_space_group_name_H-M   'P 1'
_cell_length_a   6.04260200
_cell_length_b   6.04260200
_cell_length_c   9.87400200
_cell_angle_alpha   90.00000000
_cell_angle_beta   90.00000000
_cell_angle_gamma   90.00000000
_symmetry_Int_Tables_number   1
_chemical_formula_structural   BaPb2BrF5
_chemical_formula_sum   'Ba2 Pb4 Br2 F10'
_cell_volume   360.52981942
_cell_formula_units_Z   2
loop_
 _symmetry_equiv_pos_site_id
 _symmetry_equiv_pos_as_xyz
  1  'x, y, z'
loop_
 _atom_site_type_symbol
 _atom_site_label
 _atom_site_symmetry_multiplicity
 _atom_site_fract_x
 _atom_site_fract_y
 _atom_site_fract_z
 _atom_site_occupancy
  Ba  Ba0  1  0.50000000  0.50000000  0.00000000  1
  Ba  Ba1  1  0.00000000  0.00000000  0.00000000  1
  Pb  Pb2  1  0.00000000  0.50000000  0.32154400  1
  Pb  Pb3  1  0.50000000  0.00000000  0.67845600  1
  Pb  Pb4  1  0.50000000  0.00000000  0.27602200  1
  Pb  Pb5  1  0.00000000  0.50000000  0.72397800  1
  Br  Br6  1  0.50000000  0.50000000  0.50000000  1
  Br  Br7  1  0.00000000  0.00000000  0.50000000  1
  F  F8  1  0.00000000  0.50000000  0.95959200  1
  F  F9  1  0.26549800  0.23450200  0.81187300  1
  F  F10  1  0.23450200  0.26549800  0.18812700  1
  F  F11  1  0.50000000  0.00000000  0.04040800  1
  F  F12  1  0.73450200  0.76549800  0.81187300  1
  F  F13  1  0.23450200  0.73450200  0.18812700  1
  F  F14  1  0.26549800  0.76549800  0.81187300  1
  F  F15  1  0.73450200  0.23450200  0.81187300  1
  F  F16  1  0.76549800  0.26549800  0.18812700  1
  F  F17  1  0.76549800  0.73450200  0.18812700  1
