# generated using pymatgen
data_Ho2Cu(BO2)8
_symmetry_space_group_name_H-M   'P 1'
_cell_length_a   6.22914900
_cell_length_b   8.49928200
_cell_length_c   10.24786600
_cell_angle_alpha   90.00000000
_cell_angle_beta   90.00000000
_cell_angle_gamma   90.00000000
_symmetry_Int_Tables_number   1
_chemical_formula_structural   Ho2Cu(BO2)8
_chemical_formula_sum   'Ho4 Cu2 B16 O32'
_cell_volume   542.55578221
_cell_formula_units_Z   2
loop_
 _symmetry_equiv_pos_site_id
 _symmetry_equiv_pos_as_xyz
  1  'x, y, z'
loop_
 _atom_site_type_symbol
 _atom_site_label
 _atom_site_symmetry_multiplicity
 _atom_site_fract_x
 _atom_site_fract_y
 _atom_site_fract_z
 _atom_site_occupancy
  Ho  Ho0  1  0.50000000  0.50000000  0.81793000  1
  Ho  Ho1  1  0.50000000  0.50000000  0.18207000  1
  Ho  Ho2  1  0.00000000  0.00000000  0.18207000  1
  Ho  Ho3  1  0.00000000  0.00000000  0.81793000  1
  Cu  Cu4  1  0.50000000  0.50000000  0.50000000  1
  Cu  Cu5  1  0.00000000  0.00000000  0.50000000  1
  B  B6  1  0.88113500  0.69297100  0.62290300  1
  B  B7  1  0.11886500  0.30702900  0.62290300  1
  B  B8  1  0.38113500  0.80702900  0.62290300  1
  B  B9  1  0.61886500  0.19297100  0.37709700  1
  B  B10  1  0.88113500  0.69297100  0.37709700  1
  B  B11  1  0.38113500  0.80702900  0.37709700  1
  B  B12  1  0.50000000  0.00000000  0.80630200  1
  B  B13  1  0.11886500  0.30702900  0.37709700  1
  B  B14  1  0.00000000  0.50000000  0.19369800  1
  B  B15  1  0.11435900  0.68276300  0.00000000  1
  B  B16  1  0.50000000  0.00000000  0.19369800  1
  B  B17  1  0.38564100  0.18276300  0.00000000  1
  B  B18  1  0.88564100  0.31723700  0.00000000  1
  B  B19  1  0.61435900  0.81723700  0.00000000  1
  B  B20  1  0.00000000  0.50000000  0.80630200  1
  B  B21  1  0.61886500  0.19297100  0.62290300  1
  O  O22  1  0.06239600  0.83728300  0.00000000  1
  O  O23  1  0.93719100  0.84485100  0.35908600  1
  O  O24  1  0.14858800  0.59920600  0.11611600  1
  O  O25  1  0.64858800  0.90079400  0.88388400  1
  O  O26  1  0.43760400  0.33728300  0.00000000  1
  O  O27  1  0.15333900  0.40613600  0.27022500  1
  O  O28  1  0.64936700  0.12675200  0.50000000  1
  O  O29  1  0.15333900  0.40613600  0.72977500  1
  O  O30  1  0.65333900  0.09386400  0.72977500  1
  O  O31  1  0.93719100  0.84485100  0.64091400  1
  O  O32  1  0.14858800  0.59920600  0.88388400  1
  O  O33  1  0.56280900  0.34485100  0.64091400  1
  O  O34  1  0.64858800  0.90079400  0.11611600  1
  O  O35  1  0.43719100  0.65514900  0.35908600  1
  O  O36  1  0.35141200  0.09920600  0.88388400  1
  O  O37  1  0.06280900  0.15514900  0.35908600  1
  O  O38  1  0.14936700  0.37324800  0.50000000  1
  O  O39  1  0.93760400  0.16271700  0.00000000  1
  O  O40  1  0.84666100  0.59386400  0.72977500  1
  O  O41  1  0.85141200  0.40079400  0.88388400  1
  O  O42  1  0.84666100  0.59386400  0.27022500  1
  O  O43  1  0.56280900  0.34485100  0.35908600  1
  O  O44  1  0.35063300  0.87324800  0.50000000  1
  O  O45  1  0.56239600  0.66271700  0.00000000  1
  O  O46  1  0.34666100  0.90613600  0.27022500  1
  O  O47  1  0.35141200  0.09920600  0.11611600  1
  O  O48  1  0.65333900  0.09386400  0.27022500  1
  O  O49  1  0.43719100  0.65514900  0.64091400  1
  O  O50  1  0.85141200  0.40079400  0.11611600  1
  O  O51  1  0.06280900  0.15514900  0.64091400  1
  O  O52  1  0.34666100  0.90613600  0.72977500  1
  O  O53  1  0.85063300  0.62675200  0.50000000  1
