# generated using pymatgen
data_Ca5P3ClO12
_symmetry_space_group_name_H-M   'P 1'
_cell_length_a   9.83135956
_cell_length_b   9.83135956
_cell_length_c   6.73251400
_cell_angle_alpha   90.00000000
_cell_angle_beta   90.00000000
_cell_angle_gamma   119.99999701
_symmetry_Int_Tables_number   1
_chemical_formula_structural   Ca5P3ClO12
_chemical_formula_sum   'Ca10 P6 Cl2 O24'
_cell_volume   563.55339318
_cell_formula_units_Z   2
loop_
 _symmetry_equiv_pos_site_id
 _symmetry_equiv_pos_as_xyz
  1  'x, y, z'
loop_
 _atom_site_type_symbol
 _atom_site_label
 _atom_site_symmetry_multiplicity
 _atom_site_fract_x
 _atom_site_fract_y
 _atom_site_fract_z
 _atom_site_occupancy
  Ca  Ca0  1  0.01862100  0.75439200  0.75000000  1
  Ca  Ca1  1  0.26422900  0.01862100  0.25000000  1
  Ca  Ca2  1  0.66666700  0.33333300  0.50435200  1
  Ca  Ca3  1  0.24560800  0.26422900  0.75000000  1
  Ca  Ca4  1  0.75439200  0.73577100  0.25000000  1
  Ca  Ca5  1  0.33333300  0.66666700  0.49564800  1
  Ca  Ca6  1  0.98137900  0.24560800  0.25000000  1
  Ca  Ca7  1  0.66666700  0.33333300  0.99564800  1
  Ca  Ca8  1  0.33333300  0.66666700  0.00435200  1
  Ca  Ca9  1  0.73577100  0.98137900  0.75000000  1
  P  P10  1  0.58941200  0.62130200  0.75000000  1
  P  P11  1  0.03189100  0.41058800  0.75000000  1
  P  P12  1  0.37869800  0.96810900  0.75000000  1
  P  P13  1  0.41058800  0.37869800  0.25000000  1
  P  P14  1  0.62130200  0.03189100  0.25000000  1
  P  P15  1  0.96810900  0.58941200  0.25000000  1
  Cl  Cl16  1  0.00000000  0.00000000  0.50000000  1
  Cl  Cl17  1  0.00000000  0.00000000  0.00000000  1
  O  O18  1  0.49779100  0.14611300  0.75000000  1
  O  O19  1  0.64587600  0.73034300  0.56462100  1
  O  O20  1  0.53534200  0.13007800  0.25000000  1
  O  O21  1  0.50220900  0.85388700  0.25000000  1
  O  O22  1  0.35412400  0.26965700  0.06462100  1
  O  O23  1  0.85388700  0.35167800  0.75000000  1
  O  O24  1  0.91553300  0.64587600  0.06462100  1
  O  O25  1  0.26965700  0.91553300  0.56462100  1
  O  O26  1  0.91553300  0.64587600  0.43537900  1
  O  O27  1  0.13007800  0.59473500  0.75000000  1
  O  O28  1  0.26965700  0.91553300  0.93537900  1
  O  O29  1  0.59473500  0.46465800  0.25000000  1
  O  O30  1  0.40526500  0.53534200  0.75000000  1
  O  O31  1  0.08446700  0.35412400  0.93537900  1
  O  O32  1  0.86992200  0.40526500  0.25000000  1
  O  O33  1  0.35412400  0.26965700  0.43537900  1
  O  O34  1  0.73034300  0.08446700  0.06462100  1
  O  O35  1  0.14611300  0.64832200  0.25000000  1
  O  O36  1  0.64587600  0.73034300  0.93537900  1
  O  O37  1  0.08446700  0.35412400  0.56462100  1
  O  O38  1  0.73034300  0.08446700  0.43537900  1
  O  O39  1  0.46465800  0.86992200  0.75000000  1
  O  O40  1  0.35167800  0.49779100  0.25000000  1
  O  O41  1  0.64832200  0.50220900  0.75000000  1
