# generated using pymatgen
data_NaSO4
_symmetry_space_group_name_H-M   'P 1'
_cell_length_a   4.87763900
_cell_length_b   5.71308876
_cell_length_c   6.19528964
_cell_angle_alpha   101.54606403
_cell_angle_beta   103.10247359
_cell_angle_gamma   97.66481413
_symmetry_Int_Tables_number   1
_chemical_formula_structural   NaSO4
_chemical_formula_sum   'Na2 S2 O8'
_cell_volume   161.82712162
_cell_formula_units_Z   2
loop_
 _symmetry_equiv_pos_site_id
 _symmetry_equiv_pos_as_xyz
  1  'x, y, z'
loop_
 _atom_site_type_symbol
 _atom_site_label
 _atom_site_symmetry_multiplicity
 _atom_site_fract_x
 _atom_site_fract_y
 _atom_site_fract_z
 _atom_site_occupancy
  Na  Na0  1  0.03495500  0.31393100  0.20684500  1
  Na  Na1  1  0.96504500  0.68606900  0.79315500  1
  S  S2  1  0.61060700  0.77958400  0.24808400  1
  S  S3  1  0.38939300  0.22041600  0.75191600  1
  O  O4  1  0.77003600  0.89627300  0.11342100  1
  O  O5  1  0.22996400  0.10372700  0.88657900  1
  O  O6  1  0.57907900  0.03542000  0.41626200  1
  O  O7  1  0.23141300  0.35534600  0.60626300  1
  O  O8  1  0.42092100  0.96458000  0.58373800  1
  O  O9  1  0.32014500  0.65166300  0.12674900  1
  O  O10  1  0.76858700  0.64465400  0.39373700  1
  O  O11  1  0.67985500  0.34833700  0.87325100  1
