# generated using pymatgen
data_CaSiBHO5
_symmetry_space_group_name_H-M   'P 1'
_cell_length_a   7.70310600
_cell_length_b   4.90241800
_cell_length_c   9.71694451
_cell_angle_alpha   89.78017865
_cell_angle_beta   90.00000000
_cell_angle_gamma   90.00000000
_symmetry_Int_Tables_number   1
_chemical_formula_structural   CaSiBHO5
_chemical_formula_sum   'Ca4 Si4 B4 H4 O20'
_cell_volume   366.94649082
_cell_formula_units_Z   4
loop_
 _symmetry_equiv_pos_site_id
 _symmetry_equiv_pos_as_xyz
  1  'x, y, z'
loop_
 _atom_site_type_symbol
 _atom_site_label
 _atom_site_symmetry_multiplicity
 _atom_site_fract_x
 _atom_site_fract_y
 _atom_site_fract_z
 _atom_site_occupancy
  Ca  Ca0  1  0.89698300  0.00927000  0.33709400  1
  Ca  Ca1  1  0.10301700  0.99073000  0.66290600  1
  Ca  Ca2  1  0.60301700  0.00927000  0.83709400  1
  Ca  Ca3  1  0.39698300  0.99073000  0.16290600  1
  Si  Si4  1  0.26444600  0.46752000  0.91566900  1
  Si  Si5  1  0.23555400  0.46752000  0.41566900  1
  Si  Si6  1  0.76444600  0.53248000  0.58433100  1
  Si  Si7  1  0.73555400  0.53248000  0.08433100  1
  B  B8  1  0.09076300  0.56749000  0.15961500  1
  B  B9  1  0.90923700  0.43251000  0.84038500  1
  B  B10  1  0.59076300  0.43251000  0.34038500  1
  B  B11  1  0.40923700  0.56749000  0.65961500  1
  H  H12  1  0.95711700  0.80682700  0.92364600  1
  H  H13  1  0.45711700  0.19317300  0.57635400  1
  H  H14  1  0.04288300  0.19317300  0.07635400  1
  H  H15  1  0.54288300  0.80682700  0.42364600  1
  O  O16  1  0.08770800  0.26069400  0.16433500  1
  O  O17  1  0.10083800  0.23830600  0.46278300  1
  O  O18  1  0.70001300  0.33117900  0.45663000  1
  O  O19  1  0.08574200  0.31535700  0.85433400  1
  O  O20  1  0.41229200  0.26069400  0.66433500  1
  O  O21  1  0.66570100  0.32691800  0.21025800  1
  O  O22  1  0.39916200  0.23830600  0.96278300  1
  O  O23  1  0.58574200  0.68464300  0.64566600  1
  O  O24  1  0.91229200  0.73930600  0.83566500  1
  O  O25  1  0.60083800  0.76169400  0.03721700  1
  O  O26  1  0.91425800  0.68464300  0.14566600  1
  O  O27  1  0.16570100  0.67308200  0.28974200  1
  O  O28  1  0.89916200  0.76169400  0.53721700  1
  O  O29  1  0.41425800  0.31535700  0.35433400  1
  O  O30  1  0.20001300  0.66882100  0.04337000  1
  O  O31  1  0.58770800  0.73930600  0.33566500  1
  O  O32  1  0.29998700  0.66882100  0.54337000  1
  O  O33  1  0.79998700  0.33117900  0.95663000  1
  O  O34  1  0.83429900  0.32691800  0.71025800  1
  O  O35  1  0.33429900  0.67308200  0.78974200  1
