# generated using pymatgen
data_Y2SiO5
_symmetry_space_group_name_H-M   'P 1'
_cell_length_a   6.95507000
_cell_length_b   6.74924700
_cell_length_c   9.14394659
_cell_angle_alpha   73.62205771
_cell_angle_beta   90.00000000
_cell_angle_gamma   90.00000000
_symmetry_Int_Tables_number   1
_chemical_formula_structural   Y2SiO5
_chemical_formula_sum   'Y8 Si4 O20'
_cell_volume   411.81337915
_cell_formula_units_Z   4
loop_
 _symmetry_equiv_pos_site_id
 _symmetry_equiv_pos_as_xyz
  1  'x, y, z'
loop_
 _atom_site_type_symbol
 _atom_site_label
 _atom_site_symmetry_multiplicity
 _atom_site_fract_x
 _atom_site_fract_y
 _atom_site_fract_z
 _atom_site_occupancy
  Y  Y0  1  0.64084000  0.93497200  0.87723400  1
  Y  Y1  1  0.35916000  0.06502800  0.12276600  1
  Y  Y2  1  0.14084000  0.56502800  0.12276600  1
  Y  Y3  1  0.85916000  0.43497200  0.87723400  1
  Y  Y4  1  0.12544300  0.73187600  0.47285800  1
  Y  Y5  1  0.62544300  0.76812400  0.52714200  1
  Y  Y6  1  0.37455700  0.23187600  0.47285800  1
  Y  Y7  1  0.87455700  0.26812400  0.52714200  1
  Si  Si8  1  0.41222700  0.47095700  0.79942100  1
  Si  Si9  1  0.91222700  0.02904300  0.20057900  1
  Si  Si10  1  0.58777300  0.52904300  0.20057900  1
  Si  Si11  1  0.08777300  0.97095700  0.79942100  1
  O  O12  1  0.88104900  0.55875300  0.61390800  1
  O  O13  1  0.13510500  0.00994800  0.61503600  1
  O  O14  1  0.57319400  0.65698800  0.79248400  1
  O  O15  1  0.72147600  0.02472200  0.10187500  1
  O  O16  1  0.11895100  0.44124700  0.38609200  1
  O  O17  1  0.04810300  0.23141800  0.12654000  1
  O  O18  1  0.38104900  0.94124700  0.38609200  1
  O  O19  1  0.42680600  0.34301200  0.20751600  1
  O  O20  1  0.22147600  0.47527800  0.89812500  1
  O  O21  1  0.27852400  0.97527800  0.89812500  1
  O  O22  1  0.54810300  0.26858200  0.87346000  1
  O  O23  1  0.92680600  0.15698800  0.79248400  1
  O  O24  1  0.61895100  0.05875300  0.61390800  1
  O  O25  1  0.95189700  0.76858200  0.87346000  1
  O  O26  1  0.07319400  0.84301200  0.20751600  1
  O  O27  1  0.36489500  0.50994800  0.61503600  1
  O  O28  1  0.63510500  0.49005200  0.38496400  1
  O  O29  1  0.77852400  0.52472200  0.10187500  1
  O  O30  1  0.86489500  0.99005200  0.38496400  1
  O  O31  1  0.45189700  0.73141800  0.12654000  1
