# generated using pymatgen
data_CuSeO3
_symmetry_space_group_name_H-M   'P 1'
_cell_length_a   8.57196200
_cell_length_b   7.80054600
_cell_length_c   10.75279208
_cell_angle_alpha   52.56755010
_cell_angle_beta   90.00000000
_cell_angle_gamma   90.00000000
_symmetry_Int_Tables_number   1
_chemical_formula_structural   CuSeO3
_chemical_formula_sum   'Cu8 Se8 O24'
_cell_volume   570.93353181
_cell_formula_units_Z   8
loop_
 _symmetry_equiv_pos_site_id
 _symmetry_equiv_pos_as_xyz
  1  'x, y, z'
loop_
 _atom_site_type_symbol
 _atom_site_label
 _atom_site_symmetry_multiplicity
 _atom_site_fract_x
 _atom_site_fract_y
 _atom_site_fract_z
 _atom_site_occupancy
  Cu  Cu0  1  0.79654500  0.55293100  0.97450100  1
  Cu  Cu1  1  0.40018300  0.20808100  0.38345600  1
  Cu  Cu2  1  0.59981700  0.79191900  0.61654400  1
  Cu  Cu3  1  0.90018300  0.79191900  0.11654400  1
  Cu  Cu4  1  0.20345500  0.44706900  0.02549900  1
  Cu  Cu5  1  0.09981700  0.20808100  0.88345600  1
  Cu  Cu6  1  0.29654500  0.44706900  0.52549900  1
  Cu  Cu7  1  0.70345500  0.55293100  0.47450100  1
  Se  Se8  1  0.36372400  0.90681400  0.78836500  1
  Se  Se9  1  0.53806600  0.64698500  0.17237200  1
  Se  Se10  1  0.13627600  0.90681400  0.28836500  1
  Se  Se11  1  0.46193400  0.35301500  0.82762800  1
  Se  Se12  1  0.63627600  0.09318600  0.21163500  1
  Se  Se13  1  0.03806600  0.35301500  0.32762800  1
  Se  Se14  1  0.96193400  0.64698500  0.67237200  1
  Se  Se15  1  0.86372400  0.09318600  0.71163500  1
  O  O16  1  0.19902200  0.75367800  0.83803400  1
  O  O17  1  0.44274300  0.46160600  0.16103200  1
  O  O18  1  0.57182100  0.46815200  0.37282100  1
  O  O19  1  0.27844700  0.33719900  0.91223600  1
  O  O20  1  0.30097800  0.75367800  0.33803400  1
  O  O21  1  0.69902200  0.24632200  0.66196600  1
  O  O22  1  0.72155300  0.66280100  0.08776400  1
  O  O23  1  0.07182100  0.53184800  0.12717900  1
  O  O24  1  0.05725700  0.46160600  0.66103200  1
  O  O25  1  0.28150600  0.15143800  0.72690100  1
  O  O26  1  0.80097800  0.24632200  0.16196600  1
  O  O27  1  0.92130500  0.03932400  0.89242600  1
  O  O28  1  0.92817900  0.46815200  0.87282100  1
  O  O29  1  0.71849400  0.84856200  0.27309900  1
  O  O30  1  0.42817900  0.53184800  0.62717900  1
  O  O31  1  0.55725700  0.53839400  0.83896800  1
  O  O32  1  0.21849400  0.15143800  0.22690100  1
  O  O33  1  0.94274300  0.53839400  0.33896800  1
  O  O34  1  0.77844700  0.66280100  0.58776400  1
  O  O35  1  0.57869500  0.03932400  0.39242600  1
  O  O36  1  0.78150600  0.84856200  0.77309900  1
  O  O37  1  0.42130500  0.96067600  0.60757400  1
  O  O38  1  0.22155300  0.33719900  0.41223600  1
  O  O39  1  0.07869500  0.96067600  0.10757400  1
