# generated using pymatgen
data_NaTi2Ga5O12
_symmetry_space_group_name_H-M   'P 1'
_cell_length_a   3.02744600
_cell_length_b   9.46364400
_cell_length_c   15.93639300
_cell_angle_alpha   90.00000000
_cell_angle_beta   90.00000000
_cell_angle_gamma   90.00000000
_symmetry_Int_Tables_number   1
_chemical_formula_structural   NaTi2Ga5O12
_chemical_formula_sum   'Na2 Ti4 Ga10 O24'
_cell_volume   456.58835553
_cell_formula_units_Z   2
loop_
 _symmetry_equiv_pos_site_id
 _symmetry_equiv_pos_as_xyz
  1  'x, y, z'
loop_
 _atom_site_type_symbol
 _atom_site_label
 _atom_site_symmetry_multiplicity
 _atom_site_fract_x
 _atom_site_fract_y
 _atom_site_fract_z
 _atom_site_occupancy
  Na  Na0  1  0.50000000  0.50000000  0.00000000  1
  Na  Na1  1  0.50000000  0.00000000  0.50000000  1
  Ti  Ti2  1  0.50000000  0.72865800  0.35718200  1
  Ti  Ti3  1  0.50000000  0.27134200  0.64281800  1
  Ti  Ti4  1  0.50000000  0.77134200  0.85718200  1
  Ti  Ti5  1  0.50000000  0.22865800  0.14281800  1
  Ga  Ga6  1  0.00000000  0.00000000  0.00000000  1
  Ga  Ga7  1  0.00000000  0.49140400  0.80043700  1
  Ga  Ga8  1  0.00000000  0.00859600  0.30043700  1
  Ga  Ga9  1  0.00000000  0.50859600  0.19956300  1
  Ga  Ga10  1  0.50000000  0.19452100  0.85288900  1
  Ga  Ga11  1  0.50000000  0.80547900  0.14711100  1
  Ga  Ga12  1  0.00000000  0.99140400  0.69956300  1
  Ga  Ga13  1  0.50000000  0.69452100  0.64711100  1
  Ga  Ga14  1  0.50000000  0.30547900  0.35288900  1
  Ga  Ga15  1  0.00000000  0.50000000  0.50000000  1
  O  O16  1  0.50000000  0.39355600  0.55357000  1
  O  O17  1  0.00000000  0.13823500  0.90823200  1
  O  O18  1  0.50000000  0.10798900  0.35624100  1
  O  O19  1  0.00000000  0.35913100  0.70358100  1
  O  O20  1  0.50000000  0.39201100  0.85624100  1
  O  O21  1  0.50000000  0.60798900  0.14375900  1
  O  O22  1  0.50000000  0.10644400  0.05357000  1
  O  O23  1  0.00000000  0.86176500  0.09176800  1
  O  O24  1  0.00000000  0.63823500  0.59176800  1
  O  O25  1  0.00000000  0.85913100  0.79641900  1
  O  O26  1  0.00000000  0.14086900  0.20358100  1
  O  O27  1  0.00000000  0.14383500  0.60474900  1
  O  O28  1  0.50000000  0.61333100  0.75495600  1
  O  O29  1  0.00000000  0.85616500  0.39525100  1
  O  O30  1  0.00000000  0.64086900  0.29641900  1
  O  O31  1  0.00000000  0.64383500  0.89525100  1
  O  O32  1  0.50000000  0.89355600  0.94643000  1
  O  O33  1  0.50000000  0.11333100  0.74504400  1
  O  O34  1  0.50000000  0.60644400  0.44643000  1
  O  O35  1  0.50000000  0.88666900  0.25495600  1
  O  O36  1  0.00000000  0.36176500  0.40823200  1
  O  O37  1  0.50000000  0.38666900  0.24504400  1
  O  O38  1  0.00000000  0.35616500  0.10474900  1
  O  O39  1  0.50000000  0.89201100  0.64375900  1
