# generated using pymatgen
data_Na6Se2O9
_symmetry_space_group_name_H-M   'P 1'
_cell_length_a   7.92510300
_cell_length_b   14.93984700
_cell_length_c   16.07983700
_cell_angle_alpha   90.00000000
_cell_angle_beta   90.00000000
_cell_angle_gamma   90.00000000
_symmetry_Int_Tables_number   1
_chemical_formula_structural   Na6Se2O9
_chemical_formula_sum   'Na48 Se16 O72'
_cell_volume   1903.84990740
_cell_formula_units_Z   8
loop_
 _symmetry_equiv_pos_site_id
 _symmetry_equiv_pos_as_xyz
  1  'x, y, z'
loop_
 _atom_site_type_symbol
 _atom_site_label
 _atom_site_symmetry_multiplicity
 _atom_site_fract_x
 _atom_site_fract_y
 _atom_site_fract_z
 _atom_site_occupancy
  Na  Na0  1  0.46974000  0.84095400  0.72890000  1
  Na  Na1  1  0.25000000  0.74030800  0.87892700  1
  Na  Na2  1  0.25000000  0.00724600  0.63543900  1
  Na  Na3  1  0.96974000  0.15904600  0.27110000  1
  Na  Na4  1  0.46542600  0.61869000  0.73796500  1
  Na  Na5  1  0.25000000  0.23115700  0.88676100  1
  Na  Na6  1  0.03026000  0.65904600  0.22890000  1
  Na  Na7  1  0.75000000  0.73115700  0.61323900  1
  Na  Na8  1  0.03457400  0.88131000  0.23796500  1
  Na  Na9  1  0.53177100  0.37877800  0.48171900  1
  Na  Na10  1  0.53457400  0.38131000  0.26203500  1
  Na  Na11  1  0.04058400  0.65701300  0.02179800  1
  Na  Na12  1  0.53457400  0.11868900  0.76203500  1
  Na  Na13  1  0.53026000  0.34095400  0.77110000  1
  Na  Na14  1  0.75000000  0.95214500  0.86299200  1
  Na  Na15  1  0.75000000  0.25969200  0.12107300  1
  Na  Na16  1  0.25000000  0.49275400  0.13543900  1
  Na  Na17  1  0.04058400  0.84298700  0.52179800  1
  Na  Na18  1  0.45941600  0.84298700  0.52179800  1
  Na  Na19  1  0.53177100  0.12122200  0.98171900  1
  Na  Na20  1  0.46822900  0.87877800  0.01828100  1
  Na  Na21  1  0.96822900  0.37877800  0.48171900  1
  Na  Na22  1  0.75000000  0.50724600  0.86456100  1
  Na  Na23  1  0.96542600  0.11868900  0.76203500  1
  Na  Na24  1  0.95941600  0.34298700  0.97820200  1
  Na  Na25  1  0.96974000  0.34095400  0.77110000  1
  Na  Na26  1  0.46822900  0.62122200  0.51828100  1
  Na  Na27  1  0.96542600  0.38131000  0.26203500  1
  Na  Na28  1  0.03457400  0.61869000  0.73796500  1
  Na  Na29  1  0.54058400  0.34298700  0.97820200  1
  Na  Na30  1  0.75000000  0.54785500  0.36299200  1
  Na  Na31  1  0.25000000  0.04785500  0.13700800  1
  Na  Na32  1  0.46542600  0.88131000  0.23796500  1
  Na  Na33  1  0.54058400  0.15701300  0.47820200  1
  Na  Na34  1  0.25000000  0.75969200  0.37892700  1
  Na  Na35  1  0.75000000  0.76884300  0.11323900  1
  Na  Na36  1  0.25000000  0.45214500  0.63700800  1
  Na  Na37  1  0.25000000  0.26884300  0.38676100  1
  Na  Na38  1  0.03177100  0.87877800  0.01828100  1
  Na  Na39  1  0.03177100  0.62122200  0.51828100  1
  Na  Na40  1  0.03026000  0.84095400  0.72890000  1
  Na  Na41  1  0.75000000  0.24030800  0.62107300  1
  Na  Na42  1  0.75000000  0.99275400  0.36456100  1
  Na  Na43  1  0.53026000  0.15904600  0.27110000  1
  Na  Na44  1  0.46974000  0.65904600  0.22890000  1
  Na  Na45  1  0.95941600  0.15701300  0.47820200  1
  Na  Na46  1  0.45941600  0.65701300  0.02179800  1
  Na  Na47  1  0.96822900  0.12122200  0.98171900  1
  Se  Se48  1  0.75000000  0.73793700  0.87350200  1
  Se  Se49  1  0.75000000  0.02067000  0.13295300  1
  Se  Se50  1  0.25000000  0.48345200  0.88205800  1
  Se  Se51  1  0.75000000  0.47933000  0.63295300  1
  Se  Se52  1  0.25000000  0.77308600  0.12835200  1
  Se  Se53  1  0.75000000  0.51654800  0.11794200  1
  Se  Se54  1  0.75000000  0.27308600  0.37164800  1
  Se  Se55  1  0.25000000  0.01654800  0.38205800  1
  Se  Se56  1  0.75000000  0.22691400  0.87164800  1
  Se  Se57  1  0.75000000  0.98345200  0.61794200  1
  Se  Se58  1  0.25000000  0.97933000  0.86704700  1
  Se  Se59  1  0.25000000  0.26206300  0.12649800  1
  Se  Se60  1  0.75000000  0.76206300  0.37350200  1
  Se  Se61  1  0.25000000  0.72691400  0.62835200  1
  Se  Se62  1  0.25000000  0.52067000  0.36704700  1
  Se  Se63  1  0.25000000  0.23793700  0.62649800  1
  O  O64  1  0.75000000  0.53764700  0.54379500  1
  O  O65  1  0.75000000  0.96235300  0.04379500  1
  O  O66  1  0.25000000  0.60155500  0.62845700  1
  O  O67  1  0.25000000  0.77298900  0.01276100  1
  O  O68  1  0.75000000  0.35250100  0.87126500  1
  O  O69  1  0.07706600  0.01613900  0.32168800  1
  O  O70  1  0.07787000  0.32755300  0.12521100  1
  O  O71  1  0.07787000  0.17244700  0.62521100  1
  O  O72  1  0.25000000  0.89844500  0.12845700  1
  O  O73  1  0.75000000  0.55007800  0.71426700  1
  O  O74  1  0.75000000  0.27298900  0.48723900  1
  O  O75  1  0.75000000  0.80669100  0.95618100  1
  O  O76  1  0.75000000  0.89048000  0.55881900  1
  O  O77  1  0.07623400  0.91463400  0.86472000  1
  O  O78  1  0.75000000  0.27206200  0.25647900  1
  O  O79  1  0.25000000  0.64749900  0.12873500  1
  O  O80  1  0.98192500  0.27354500  0.37214700  1
  O  O81  1  0.25000000  0.19330900  0.04381900  1
  O  O82  1  0.57706600  0.98386100  0.67831200  1
  O  O83  1  0.25000000  0.30669100  0.54381900  1
  O  O84  1  0.25000000  0.92721700  0.44484100  1
  O  O85  1  0.57787000  0.67244700  0.87478900  1
  O  O86  1  0.25000000  0.57278300  0.94484100  1
  O  O87  1  0.25000000  0.03764700  0.95620500  1
  O  O88  1  0.75000000  0.94992200  0.21426700  1
  O  O89  1  0.75000000  0.60952000  0.05881900  1
  O  O90  1  0.57623400  0.08536600  0.13528000  1
  O  O91  1  0.25000000  0.72701100  0.51276100  1
  O  O92  1  0.25000000  0.44992200  0.28573300  1
  O  O93  1  0.25000000  0.72793800  0.74352100  1
  O  O94  1  0.92293400  0.98386100  0.67831200  1
  O  O95  1  0.75000000  0.22793800  0.75647900  1
  O  O96  1  0.75000000  0.69330900  0.45618100  1
  O  O97  1  0.25000000  0.10952000  0.44118100  1
  O  O98  1  0.25000000  0.46235300  0.45620500  1
  O  O99  1  0.75000000  0.22701100  0.98723900  1
  O  O100  1  0.25000000  0.05007800  0.78573300  1
  O  O101  1  0.92376600  0.08536600  0.13528000  1
  O  O102  1  0.75000000  0.80286300  0.78766000  1
  O  O103  1  0.75000000  0.39844500  0.37154300  1
  O  O104  1  0.42293400  0.01613900  0.32168800  1
  O  O105  1  0.01807500  0.77354500  0.12785300  1
  O  O106  1  0.25000000  0.85250100  0.62873500  1
  O  O107  1  0.25000000  0.30286300  0.71234000  1
  O  O108  1  0.07623400  0.58536600  0.36472000  1
  O  O109  1  0.25000000  0.19713700  0.21234000  1
  O  O110  1  0.92213000  0.82755300  0.37478900  1
  O  O111  1  0.92293400  0.51613900  0.17831200  1
  O  O112  1  0.75000000  0.10155500  0.87154300  1
  O  O113  1  0.75000000  0.14749900  0.37126500  1
  O  O114  1  0.42293400  0.48386100  0.82168800  1
  O  O115  1  0.25000000  0.77206200  0.24352100  1
  O  O116  1  0.51807500  0.22645500  0.87214700  1
  O  O117  1  0.75000000  0.42721700  0.05515900  1
  O  O118  1  0.07706600  0.48386100  0.82168800  1
  O  O119  1  0.01807500  0.72645500  0.62785300  1
  O  O120  1  0.42213000  0.32755300  0.12521100  1
  O  O121  1  0.51807500  0.27354500  0.37214700  1
  O  O122  1  0.42376600  0.58536600  0.36472000  1
  O  O123  1  0.42213000  0.17244700  0.62521100  1
  O  O124  1  0.92213000  0.67244700  0.87478900  1
  O  O125  1  0.98192500  0.22645500  0.87214700  1
  O  O126  1  0.57787000  0.82755300  0.37478900  1
  O  O127  1  0.42376600  0.91463400  0.86472000  1
  O  O128  1  0.57623400  0.41463400  0.63528000  1
  O  O129  1  0.48192600  0.77354500  0.12785300  1
  O  O130  1  0.75000000  0.69713700  0.28766000  1
  O  O131  1  0.92376600  0.41463400  0.63528000  1
  O  O132  1  0.48192600  0.72645500  0.62785300  1
  O  O133  1  0.57706600  0.51613900  0.17831200  1
  O  O134  1  0.25000000  0.39048000  0.94118100  1
  O  O135  1  0.75000000  0.07278300  0.55515900  1
