# generated using pymatgen
data_LaNb2ClO6
_symmetry_space_group_name_H-M   'P 1'
_cell_length_a   7.40815200
_cell_length_b   8.43792100
_cell_length_c   9.95731400
_cell_angle_alpha   90.00000000
_cell_angle_beta   90.00000000
_cell_angle_gamma   90.00000000
_symmetry_Int_Tables_number   1
_chemical_formula_structural   LaNb2ClO6
_chemical_formula_sum   'La4 Nb8 Cl4 O24'
_cell_volume   622.42573701
_cell_formula_units_Z   4
loop_
 _symmetry_equiv_pos_site_id
 _symmetry_equiv_pos_as_xyz
  1  'x, y, z'
loop_
 _atom_site_type_symbol
 _atom_site_label
 _atom_site_symmetry_multiplicity
 _atom_site_fract_x
 _atom_site_fract_y
 _atom_site_fract_z
 _atom_site_occupancy
  La  La0  1  0.75000000  0.31001500  0.32235600  1
  La  La1  1  0.25000000  0.68998500  0.67764400  1
  La  La2  1  0.25000000  0.81001500  0.17764400  1
  La  La3  1  0.75000000  0.18998500  0.82235600  1
  Nb  Nb4  1  0.50000000  0.00000000  0.50000000  1
  Nb  Nb5  1  0.75000000  0.73220100  0.73565300  1
  Nb  Nb6  1  0.25000000  0.23220100  0.76434700  1
  Nb  Nb7  1  0.75000000  0.76779900  0.23565300  1
  Nb  Nb8  1  0.25000000  0.26779900  0.26434700  1
  Nb  Nb9  1  0.00000000  0.50000000  0.00000000  1
  Nb  Nb10  1  0.50000000  0.50000000  0.00000000  1
  Nb  Nb11  1  0.00000000  0.00000000  0.50000000  1
  Cl  Cl12  1  0.75000000  0.07327500  0.10523500  1
  Cl  Cl13  1  0.75000000  0.42672500  0.60523500  1
  Cl  Cl14  1  0.25000000  0.92672500  0.89476500  1
  Cl  Cl15  1  0.25000000  0.57327500  0.39476500  1
  O  O16  1  0.44510500  0.20008000  0.39589400  1
  O  O17  1  0.45174400  0.11474300  0.67381500  1
  O  O18  1  0.94510500  0.70008000  0.10410600  1
  O  O19  1  0.75000000  0.42006300  0.00323400  1
  O  O20  1  0.25000000  0.08424100  0.17082500  1
  O  O21  1  0.44510500  0.29992000  0.89589400  1
  O  O22  1  0.05489500  0.20008000  0.39589400  1
  O  O23  1  0.25000000  0.57993700  0.99676600  1
  O  O24  1  0.45174400  0.38525700  0.17381500  1
  O  O25  1  0.75000000  0.07993700  0.50323400  1
  O  O26  1  0.55489500  0.70008000  0.10410600  1
  O  O27  1  0.04825600  0.38525700  0.17381500  1
  O  O28  1  0.25000000  0.92006300  0.49676600  1
  O  O29  1  0.54825600  0.61474300  0.82618500  1
  O  O30  1  0.95174400  0.61474300  0.82618500  1
  O  O31  1  0.05489500  0.29992000  0.89589400  1
  O  O32  1  0.25000000  0.41575900  0.67082500  1
  O  O33  1  0.94510500  0.79992000  0.60410600  1
  O  O34  1  0.75000000  0.58424100  0.32917500  1
  O  O35  1  0.75000000  0.91575900  0.82917500  1
  O  O36  1  0.95174400  0.88525700  0.32618500  1
  O  O37  1  0.55489500  0.79992000  0.60410600  1
  O  O38  1  0.04825600  0.11474300  0.67381500  1
  O  O39  1  0.54825600  0.88525700  0.32618500  1
