# generated using pymatgen
data_Ca6Si3H2O13
_symmetry_space_group_name_H-M   'P 1'
_cell_length_a   6.89256500
_cell_length_b   7.00606728
_cell_length_c   12.98538532
_cell_angle_alpha   90.79975815
_cell_angle_beta   97.63274959
_cell_angle_gamma   98.05304622
_symmetry_Int_Tables_number   1
_chemical_formula_structural   Ca6Si3H2O13
_chemical_formula_sum   'Ca12 Si6 H4 O26'
_cell_volume   615.03772883
_cell_formula_units_Z   2
loop_
 _symmetry_equiv_pos_site_id
 _symmetry_equiv_pos_as_xyz
  1  'x, y, z'
loop_
 _atom_site_type_symbol
 _atom_site_label
 _atom_site_symmetry_multiplicity
 _atom_site_fract_x
 _atom_site_fract_y
 _atom_site_fract_z
 _atom_site_occupancy
  Ca  Ca0  1  0.68382000  0.80825800  0.12424900  1
  Ca  Ca1  1  0.80987200  0.79622400  0.51179700  1
  Ca  Ca2  1  0.44005500  0.96666600  0.67865400  1
  Ca  Ca3  1  0.10714000  0.52781300  0.70907900  1
  Ca  Ca4  1  0.91872800  0.80535500  0.89836600  1
  Ca  Ca5  1  0.08127200  0.19464500  0.10163400  1
  Ca  Ca6  1  0.19012800  0.20377600  0.48820300  1
  Ca  Ca7  1  0.89286000  0.47218700  0.29092100  1
  Ca  Ca8  1  0.40647800  0.52325200  0.29671200  1
  Ca  Ca9  1  0.55994500  0.03333400  0.32134600  1
  Ca  Ca10  1  0.59352200  0.47674800  0.70328800  1
  Ca  Ca11  1  0.31618000  0.19174200  0.87575100  1
  Si  Si12  1  0.38587300  0.71131700  0.90200300  1
  Si  Si13  1  0.61412700  0.28868300  0.09799700  1
  Si  Si14  1  0.28523600  0.70106200  0.49090000  1
  Si  Si15  1  0.81030800  0.28485300  0.88435600  1
  Si  Si16  1  0.18969200  0.71514700  0.11564400  1
  Si  Si17  1  0.71476400  0.29893800  0.50910000  1
  H  H18  1  0.18832900  0.02789200  0.27720300  1
  H  H19  1  0.06623600  0.11767400  0.67668100  1
  H  H20  1  0.81167100  0.97210800  0.72279700  1
  H  H21  1  0.93376400  0.88232600  0.32331900  1
  O  O22  1  0.74311600  0.15088200  0.17616700  1
  O  O23  1  0.83355300  0.48501800  0.58198400  1
  O  O24  1  0.88498600  0.48940900  0.83081900  1
  O  O25  1  0.35816400  0.63319700  0.60975200  1
  O  O26  1  0.61681800  0.18519800  0.80470100  1
  O  O27  1  0.76457700  0.83919900  0.69836700  1
  O  O28  1  0.64183600  0.36680300  0.39024800  1
  O  O29  1  0.61858700  0.48871600  0.16559900  1
  O  O30  1  0.25248300  0.66425900  0.99982800  1
  O  O31  1  0.38318200  0.81480200  0.19529900  1
  O  O32  1  0.38141300  0.51128400  0.83440100  1
  O  O33  1  0.81022800  0.79324800  0.31480200  1
  O  O34  1  0.16644700  0.51498200  0.41801600  1
  O  O35  1  0.74751700  0.33574100  0.00017200  1
  O  O36  1  0.84686100  0.12762700  0.48905400  1
  O  O37  1  0.23542300  0.16080100  0.30163300  1
  O  O38  1  0.25688400  0.84911800  0.82383300  1
  O  O39  1  0.18977200  0.20675200  0.68519800  1
  O  O40  1  0.52130200  0.21783900  0.56653300  1
  O  O41  1  0.60958000  0.80647100  0.94741500  1
  O  O42  1  0.47869800  0.78216100  0.43346700  1
  O  O43  1  0.01422400  0.85102500  0.09027300  1
  O  O44  1  0.98577600  0.14897500  0.90972700  1
  O  O45  1  0.11501400  0.51059100  0.16918100  1
  O  O46  1  0.15313900  0.87237300  0.51094600  1
  O  O47  1  0.39042000  0.19352900  0.05258500  1
