# generated using pymatgen
data_SiO2
_symmetry_space_group_name_H-M   'P 1'
_cell_length_a   5.12824979
_cell_length_b   5.12824979
_cell_length_c   8.37876700
_cell_angle_alpha   90.00000000
_cell_angle_beta   90.00000000
_cell_angle_gamma   120.82161880
_symmetry_Int_Tables_number   1
_chemical_formula_structural   SiO2
_chemical_formula_sum   'Si4 O8'
_cell_volume   189.23158086
_cell_formula_units_Z   4
loop_
 _symmetry_equiv_pos_site_id
 _symmetry_equiv_pos_as_xyz
  1  'x, y, z'
loop_
 _atom_site_type_symbol
 _atom_site_label
 _atom_site_symmetry_multiplicity
 _atom_site_fract_x
 _atom_site_fract_y
 _atom_site_fract_z
 _atom_site_occupancy
  Si  Si0  1  0.33036800  0.66062700  0.06260400  1
  Si  Si1  1  0.66062700  0.33036800  0.56260400  1
  Si  Si2  1  0.33036800  0.66062700  0.43739600  1
  Si  Si3  1  0.66062700  0.33036800  0.93739600  1
  O  O4  1  0.40686700  0.40686700  0.00000000  1
  O  O5  1  0.96925200  0.52865900  0.45935600  1
  O  O6  1  0.73743800  0.41701300  0.75000000  1
  O  O7  1  0.52865900  0.96925200  0.54064400  1
  O  O8  1  0.41701300  0.73743800  0.25000000  1
  O  O9  1  0.52865900  0.96925200  0.95935600  1
  O  O10  1  0.40686700  0.40686700  0.50000000  1
  O  O11  1  0.96925200  0.52865900  0.04064400  1
