# generated using pymatgen
data_SbS2NCl8
_symmetry_space_group_name_H-M   'P 1'
_cell_length_a   11.71574300
_cell_length_b   7.79509700
_cell_length_c   16.63242387
_cell_angle_alpha   81.61917537
_cell_angle_beta   90.00000000
_cell_angle_gamma   90.00000000
_symmetry_Int_Tables_number   1
_chemical_formula_structural   SbS2NCl8
_chemical_formula_sum   'Sb4 S8 N4 Cl32'
_cell_volume   1502.74124232
_cell_formula_units_Z   4
loop_
 _symmetry_equiv_pos_site_id
 _symmetry_equiv_pos_as_xyz
  1  'x, y, z'
loop_
 _atom_site_type_symbol
 _atom_site_label
 _atom_site_symmetry_multiplicity
 _atom_site_fract_x
 _atom_site_fract_y
 _atom_site_fract_z
 _atom_site_occupancy
  Sb  Sb0  1  0.80031100  0.75392500  0.84695300  1
  Sb  Sb1  1  0.69968900  0.75392500  0.34695300  1
  Sb  Sb2  1  0.19968900  0.24607500  0.15304700  1
  Sb  Sb3  1  0.30031100  0.24607500  0.65304700  1
  S  S4  1  0.72102300  0.20047900  0.98216100  1
  S  S5  1  0.27897700  0.79952100  0.01783900  1
  S  S6  1  0.21573200  0.71694800  0.85286300  1
  S  S7  1  0.22102300  0.79952100  0.51783900  1
  S  S8  1  0.77897700  0.20047900  0.48216100  1
  S  S9  1  0.78426800  0.28305200  0.14713700  1
  S  S10  1  0.28426800  0.71694800  0.35286300  1
  S  S11  1  0.71573200  0.28305200  0.64713700  1
  N  N12  1  0.21873800  0.76521300  0.93941700  1
  N  N13  1  0.78126200  0.23478700  0.06058300  1
  N  N14  1  0.71873800  0.23478700  0.56058300  1
  N  N15  1  0.28126200  0.76521300  0.43941700  1
  Cl  Cl16  1  0.84552800  0.97575500  0.32210000  1
  Cl  Cl17  1  0.33659400  0.45854100  0.18652900  1
  Cl  Cl18  1  0.45011500  0.77076900  0.00877800  1
  Cl  Cl19  1  0.65447200  0.97575500  0.82210000  1
  Cl  Cl20  1  0.43399900  0.03476200  0.61801500  1
  Cl  Cl21  1  0.04988500  0.77076900  0.50877800  1
  Cl  Cl22  1  0.37389000  0.67389400  0.81336000  1
  Cl  Cl23  1  0.05860700  0.47161000  0.12505600  1
  Cl  Cl24  1  0.15447200  0.02424500  0.67790000  1
  Cl  Cl25  1  0.64217500  0.81203700  0.20701900  1
  Cl  Cl26  1  0.93399900  0.96523800  0.88198500  1
  Cl  Cl27  1  0.06600100  0.03476200  0.11801500  1
  Cl  Cl28  1  0.95011500  0.22923100  0.49122200  1
  Cl  Cl29  1  0.62611000  0.32610600  0.18664000  1
  Cl  Cl30  1  0.55860700  0.52839000  0.37494400  1
  Cl  Cl31  1  0.76153100  0.69812900  0.48796700  1
  Cl  Cl32  1  0.26153100  0.30187100  0.01203300  1
  Cl  Cl33  1  0.23846900  0.30187100  0.51203300  1
  Cl  Cl34  1  0.56600100  0.96523800  0.38198500  1
  Cl  Cl35  1  0.54988500  0.22923100  0.99122200  1
  Cl  Cl36  1  0.34552800  0.02424500  0.17790000  1
  Cl  Cl37  1  0.66340600  0.54145900  0.81347100  1
  Cl  Cl38  1  0.44139300  0.47161000  0.62505600  1
  Cl  Cl39  1  0.12611000  0.67389400  0.31336000  1
  Cl  Cl40  1  0.16340600  0.45854100  0.68652900  1
  Cl  Cl41  1  0.87389000  0.32610600  0.68664000  1
  Cl  Cl42  1  0.94139300  0.52839000  0.87494400  1
  Cl  Cl43  1  0.14217500  0.18796300  0.29298100  1
  Cl  Cl44  1  0.83659400  0.54145900  0.31347100  1
  Cl  Cl45  1  0.85782500  0.81203700  0.70701900  1
  Cl  Cl46  1  0.35782500  0.18796300  0.79298100  1
  Cl  Cl47  1  0.73846900  0.69812900  0.98796700  1
