# generated using pymatgen
data_K3Pu(H3O4)2
_symmetry_space_group_name_H-M   'P 1'
_cell_length_a   8.45435500
_cell_length_b   7.62075300
_cell_length_c   7.90005808
_cell_angle_alpha   63.41668171
_cell_angle_beta   90.00000000
_cell_angle_gamma   90.00000000
_symmetry_Int_Tables_number   1
_chemical_formula_structural   K3Pu(H3O4)2
_chemical_formula_sum   'K6 Pu2 H12 O16'
_cell_volume   455.18127158
_cell_formula_units_Z   2
loop_
 _symmetry_equiv_pos_site_id
 _symmetry_equiv_pos_as_xyz
  1  'x, y, z'
loop_
 _atom_site_type_symbol
 _atom_site_label
 _atom_site_symmetry_multiplicity
 _atom_site_fract_x
 _atom_site_fract_y
 _atom_site_fract_z
 _atom_site_occupancy
  K  K0  1  0.19065400  0.08622700  0.45715800  1
  K  K1  1  0.80934600  0.91377300  0.54284200  1
  K  K2  1  0.30934600  0.08622700  0.95715800  1
  K  K3  1  0.69065400  0.91377300  0.04284200  1
  K  K4  1  0.50000000  0.50000000  0.00000000  1
  K  K5  1  0.00000000  0.50000000  0.50000000  1
  Pu  Pu6  1  0.00000000  0.50000000  0.00000000  1
  Pu  Pu7  1  0.50000000  0.50000000  0.50000000  1
  H  H8  1  0.97664900  0.07784900  0.12926700  1
  H  H9  1  0.47664900  0.92215100  0.37073300  1
  H  H10  1  0.52705200  0.14145900  0.32691800  1
  H  H11  1  0.02705200  0.85854100  0.17308200  1
  H  H12  1  0.20196200  0.66589300  0.68132800  1
  H  H13  1  0.47294800  0.85854100  0.67308300  1
  H  H14  1  0.79803800  0.33410700  0.31867200  1
  H  H15  1  0.29803800  0.66589300  0.18132800  1
  H  H16  1  0.70196200  0.33410700  0.81867200  1
  H  H17  1  0.52335100  0.07784900  0.62926700  1
  H  H18  1  0.02335100  0.92215100  0.87073300  1
  H  H19  1  0.97294800  0.14145900  0.82691700  1
  O  O20  1  0.99754800  0.05402100  0.76614700  1
  O  O21  1  0.19498600  0.37107600  0.07637800  1
  O  O22  1  0.30501400  0.37107600  0.57637800  1
  O  O23  1  0.43152900  0.70264500  0.57894500  1
  O  O24  1  0.69498600  0.62892400  0.42362200  1
  O  O25  1  0.93152900  0.29735500  0.92105500  1
  O  O26  1  0.80501400  0.62892400  0.92362200  1
  O  O27  1  0.90856400  0.30857700  0.29695600  1
  O  O28  1  0.06847100  0.70264500  0.07894500  1
  O  O29  1  0.56847100  0.29735500  0.42105500  1
  O  O30  1  0.40856400  0.69142300  0.20304400  1
  O  O31  1  0.09143600  0.69142300  0.70304400  1
  O  O32  1  0.00245200  0.94597900  0.23385300  1
  O  O33  1  0.50245200  0.05402100  0.26614700  1
  O  O34  1  0.49754800  0.94597900  0.73385300  1
  O  O35  1  0.59143600  0.30857700  0.79695600  1
