# generated using pymatgen
data_Bi(BO2)3
_symmetry_space_group_name_H-M   'P 1'
_cell_length_a   4.32477100
_cell_length_b   4.50488300
_cell_length_c   18.61563100
_cell_angle_alpha   90.00000000
_cell_angle_beta   90.00000000
_cell_angle_gamma   90.00000000
_symmetry_Int_Tables_number   1
_chemical_formula_structural   Bi(BO2)3
_chemical_formula_sum   'Bi4 B12 O24'
_cell_volume   362.68065716
_cell_formula_units_Z   4
loop_
 _symmetry_equiv_pos_site_id
 _symmetry_equiv_pos_as_xyz
  1  'x, y, z'
loop_
 _atom_site_type_symbol
 _atom_site_label
 _atom_site_symmetry_multiplicity
 _atom_site_fract_x
 _atom_site_fract_y
 _atom_site_fract_z
 _atom_site_occupancy
  Bi  Bi0  1  0.30246800  0.15671700  0.33757100  1
  Bi  Bi1  1  0.80246800  0.84328300  0.66242900  1
  Bi  Bi2  1  0.80246800  0.15671700  0.16242900  1
  Bi  Bi3  1  0.30246800  0.84328300  0.83757100  1
  B  B4  1  0.35582600  0.32789100  0.57234800  1
  B  B5  1  0.38424900  0.82490900  0.49849800  1
  B  B6  1  0.33141000  0.36407500  0.71279700  1
  B  B7  1  0.85582600  0.67210900  0.42765200  1
  B  B8  1  0.33141000  0.63592500  0.21279700  1
  B  B9  1  0.85582600  0.32789100  0.92765200  1
  B  B10  1  0.83141000  0.63592500  0.28720300  1
  B  B11  1  0.35582600  0.67210900  0.07234800  1
  B  B12  1  0.83141000  0.36407500  0.78720300  1
  B  B13  1  0.88424900  0.82490900  0.00150200  1
  B  B14  1  0.88424900  0.17509100  0.50150200  1
  B  B15  1  0.38424900  0.17509100  0.99849800  1
  O  O16  1  0.02985700  0.87293100  0.48167200  1
  O  O17  1  0.43035800  0.63777500  0.56018800  1
  O  O18  1  0.52985700  0.87293100  0.01832800  1
  O  O19  1  0.46388400  0.75642200  0.14579800  1
  O  O20  1  0.52985700  0.12706900  0.51832800  1
  O  O21  1  0.83580800  0.68874700  0.78840900  1
  O  O22  1  0.43035800  0.36222500  0.06018800  1
  O  O23  1  0.52656200  0.73810800  0.43223900  1
  O  O24  1  0.46388400  0.24357800  0.64579800  1
  O  O25  1  0.02985700  0.12706900  0.98167200  1
  O  O26  1  0.51367600  0.74804100  0.27541100  1
  O  O27  1  0.02656200  0.73810800  0.06776100  1
  O  O28  1  0.83580800  0.31125300  0.28840900  1
  O  O29  1  0.01367600  0.74804100  0.22458900  1
  O  O30  1  0.52656200  0.26189200  0.93223900  1
  O  O31  1  0.93035800  0.36222500  0.43981200  1
  O  O32  1  0.02656200  0.26189200  0.56776100  1
  O  O33  1  0.01367600  0.25195900  0.72458900  1
  O  O34  1  0.93035800  0.63777500  0.93981200  1
  O  O35  1  0.51367600  0.25195900  0.77541100  1
  O  O36  1  0.33580800  0.68874700  0.71159100  1
  O  O37  1  0.96388400  0.24357800  0.85420200  1
  O  O38  1  0.33580800  0.31125300  0.21159100  1
  O  O39  1  0.96388400  0.75642200  0.35420200  1
