# generated using pymatgen
data_ZnS
_symmetry_space_group_name_H-M   'P 1'
_cell_length_a   3.85312154
_cell_length_b   3.85312154
_cell_length_c   88.12965800
_cell_angle_alpha   90.00000000
_cell_angle_beta   90.00000000
_cell_angle_gamma   119.99999203
_symmetry_Int_Tables_number   1
_chemical_formula_structural   ZnS
_chemical_formula_sum   'Zn28 S28'
_cell_volume   1133.12590164
_cell_formula_units_Z   28
loop_
 _symmetry_equiv_pos_site_id
 _symmetry_equiv_pos_as_xyz
  1  'x, y, z'
loop_
 _atom_site_type_symbol
 _atom_site_label
 _atom_site_symmetry_multiplicity
 _atom_site_fract_x
 _atom_site_fract_y
 _atom_site_fract_z
 _atom_site_occupancy
  Zn  Zn0  1  0.00000000  0.00000000  0.07143100  1
  Zn  Zn1  1  0.33333300  0.66666700  0.32143100  1
  Zn  Zn2  1  0.33333300  0.66666700  0.21429100  1
  Zn  Zn3  1  0.66666700  0.33333300  0.14286100  1
  Zn  Zn4  1  0.66666700  0.33333300  0.35714300  1
  Zn  Zn5  1  0.00000000  0.00000000  0.39286100  1
  Zn  Zn6  1  0.66666700  0.33333300  0.46429100  1
  Zn  Zn7  1  0.00000000  0.00000000  0.82142800  1
  Zn  Zn8  1  0.33333300  0.66666700  0.64286000  1
  Zn  Zn9  1  0.66666700  0.33333300  0.57143100  1
  Zn  Zn10  1  0.66666700  0.33333300  0.78571500  1
  Zn  Zn11  1  0.33333300  0.66666700  0.53571400  1
  Zn  Zn12  1  0.66666700  0.33333300  0.85714700  1
  Zn  Zn13  1  0.33333300  0.66666700  0.89286000  1
  Zn  Zn14  1  0.00000000  0.00000000  0.28571400  1
  Zn  Zn15  1  0.00000000  0.00000000  0.60714300  1
  Zn  Zn16  1  0.66666700  0.33333300  0.67857300  1
  Zn  Zn17  1  0.00000000  0.00000000  0.71429100  1
  Zn  Zn18  1  0.33333300  0.66666700  0.10714300  1
  Zn  Zn19  1  0.00000000  0.00000000  0.92857300  1
  Zn  Zn20  1  0.66666700  0.33333300  0.03571900  1
  Zn  Zn21  1  0.00000000  0.00000000  0.17857300  1
  Zn  Zn22  1  0.33333300  0.66666700  0.00000000  1
  Zn  Zn23  1  0.00000000  0.00000000  0.50000300  1
  Zn  Zn24  1  0.66666700  0.33333300  0.96429100  1
  Zn  Zn25  1  0.33333300  0.66666700  0.42857300  1
  Zn  Zn26  1  0.66666700  0.33333300  0.25000300  1
  Zn  Zn27  1  0.33333300  0.66666700  0.75000300  1
  S  S28  1  0.00000000  0.00000000  0.20535700  1
  S  S29  1  0.33333300  0.66666700  0.34821000  1
  S  S30  1  0.66666700  0.33333300  0.81248300  1
  S  S31  1  0.66666700  0.33333300  0.99105500  1
  S  S32  1  0.33333300  0.66666700  0.45535700  1
  S  S33  1  0.33333300  0.66666700  0.02680000  1
  S  S34  1  0.00000000  0.00000000  0.63392700  1
  S  S35  1  0.00000000  0.00000000  0.84822300  1
  S  S36  1  0.33333300  0.66666700  0.91964000  1
  S  S37  1  0.00000000  0.00000000  0.41964000  1
  S  S38  1  0.00000000  0.00000000  0.09820800  1
  S  S39  1  0.33333300  0.66666700  0.13392700  1
  S  S40  1  0.00000000  0.00000000  0.31249700  1
  S  S41  1  0.66666700  0.33333300  0.88392500  1
  S  S42  1  0.00000000  0.00000000  0.52678700  1
  S  S43  1  0.66666700  0.33333300  0.38392700  1
  S  S44  1  0.33333300  0.66666700  0.66963900  1
  S  S45  1  0.33333300  0.66666700  0.77678500  1
  S  S46  1  0.66666700  0.33333300  0.59820800  1
  S  S47  1  0.33333300  0.66666700  0.24107000  1
  S  S48  1  0.00000000  0.00000000  0.74106900  1
  S  S49  1  0.00000000  0.00000000  0.95535700  1
  S  S50  1  0.66666700  0.33333300  0.70535600  1
  S  S51  1  0.66666700  0.33333300  0.27678700  1
  S  S52  1  0.66666700  0.33333300  0.06249600  1
  S  S53  1  0.66666700  0.33333300  0.49107000  1
  S  S54  1  0.33333300  0.66666700  0.56249700  1
  S  S55  1  0.66666700  0.33333300  0.16964000  1
