# generated using pymatgen
data_Ca(Al2Cu)4
_symmetry_space_group_name_H-M   'P 1'
_cell_length_a   6.77003006
_cell_length_b   6.77003006
_cell_length_c   6.77003006
_cell_angle_alpha   98.22516784
_cell_angle_beta   98.22516784
_cell_angle_gamma   135.55088219
_symmetry_Int_Tables_number   1
_chemical_formula_structural   Ca(Al2Cu)4
_chemical_formula_sum   'Ca1 Al8 Cu4'
_cell_volume   201.14768749
_cell_formula_units_Z   1
loop_
 _symmetry_equiv_pos_site_id
 _symmetry_equiv_pos_as_xyz
  1  'x, y, z'
loop_
 _atom_site_type_symbol
 _atom_site_label
 _atom_site_symmetry_multiplicity
 _atom_site_fract_x
 _atom_site_fract_y
 _atom_site_fract_z
 _atom_site_occupancy
  Ca  Ca0  1  0.00000000  0.00000000  0.00000000  1
  Al  Al1  1  0.00000000  0.34869800  0.34869800  1
  Al  Al2  1  0.65130200  0.00000000  0.65130200  1
  Al  Al3  1  0.34869800  0.00000000  0.34869800  1
  Al  Al4  1  0.00000000  0.65130200  0.65130200  1
  Al  Al5  1  0.50000000  0.28001400  0.78001400  1
  Al  Al6  1  0.71998600  0.50000000  0.21998600  1
  Al  Al7  1  0.28001400  0.50000000  0.78001400  1
  Al  Al8  1  0.50000000  0.71998600  0.21998600  1
  Cu  Cu9  1  0.00000000  0.50000000  0.00000000  1
  Cu  Cu10  1  0.00000000  0.00000000  0.50000000  1
  Cu  Cu11  1  0.50000000  0.50000000  0.50000000  1
  Cu  Cu12  1  0.50000000  0.00000000  0.00000000  1
