# generated using pymatgen
data_La3RuO7
_symmetry_space_group_name_H-M   'P 1'
_cell_length_a   5.76793700
_cell_length_b   8.91198500
_cell_length_c   12.63261258
_cell_angle_alpha   75.53051722
_cell_angle_beta   90.00000000
_cell_angle_gamma   90.00000000
_symmetry_Int_Tables_number   1
_chemical_formula_structural   La3RuO7
_chemical_formula_sum   'La12 Ru4 O28'
_cell_volume   628.76662397
_cell_formula_units_Z   4
loop_
 _symmetry_equiv_pos_site_id
 _symmetry_equiv_pos_as_xyz
  1  'x, y, z'
loop_
 _atom_site_type_symbol
 _atom_site_label
 _atom_site_symmetry_multiplicity
 _atom_site_fract_x
 _atom_site_fract_y
 _atom_site_fract_z
 _atom_site_occupancy
  La  La0  1  0.98196400  0.29620600  0.57267000  1
  La  La1  1  0.51369700  0.56995700  0.63168100  1
  La  La2  1  0.01369700  0.43004300  0.86831900  1
  La  La3  1  0.01803600  0.70379400  0.42733000  1
  La  La4  1  0.51803600  0.29620600  0.07267000  1
  La  La5  1  0.98902500  0.00080800  0.85863300  1
  La  La6  1  0.48902500  0.99919200  0.64136700  1
  La  La7  1  0.98630300  0.56995700  0.13168100  1
  La  La8  1  0.48196400  0.70379400  0.92733000  1
  La  La9  1  0.51097500  0.00080800  0.35863300  1
  La  La10  1  0.48630300  0.43004300  0.36831900  1
  La  La11  1  0.01097500  0.99919200  0.14136700  1
  Ru  Ru12  1  0.45482400  0.21510800  0.83170000  1
  Ru  Ru13  1  0.54517600  0.78489200  0.16830000  1
  Ru  Ru14  1  0.04517600  0.21510800  0.33170000  1
  Ru  Ru15  1  0.95482400  0.78489200  0.66830000  1
  O  O16  1  0.23761200  0.17183700  0.96694700  1
  O  O17  1  0.74134300  0.19111200  0.92286900  1
  O  O18  1  0.14843600  0.23921900  0.75338300  1
  O  O19  1  0.94766500  0.56377000  0.67694300  1
  O  O20  1  0.56883000  0.00869200  0.16948800  1
  O  O21  1  0.38343900  0.74885200  0.30824800  1
  O  O22  1  0.61656100  0.25114800  0.69175200  1
  O  O23  1  0.88343900  0.25114800  0.19175200  1
  O  O24  1  0.05233500  0.43623000  0.32305700  1
  O  O25  1  0.24134300  0.80888800  0.57713100  1
  O  O26  1  0.85156400  0.76078100  0.24661700  1
  O  O27  1  0.93117000  0.00869200  0.66948800  1
  O  O28  1  0.35156400  0.23921900  0.25338300  1
  O  O29  1  0.43117000  0.99130800  0.83051200  1
  O  O30  1  0.75865700  0.19111200  0.42286900  1
  O  O31  1  0.76238800  0.82816300  0.03305300  1
  O  O32  1  0.73761200  0.82816300  0.53305300  1
  O  O33  1  0.24050900  0.49310300  0.01127500  1
  O  O34  1  0.74050900  0.50689700  0.48872500  1
  O  O35  1  0.55233500  0.56377000  0.17694300  1
  O  O36  1  0.06883000  0.99130800  0.33051200  1
  O  O37  1  0.26238800  0.17183700  0.46694700  1
  O  O38  1  0.11656100  0.74885200  0.80824800  1
  O  O39  1  0.75949100  0.50689700  0.98872500  1
  O  O40  1  0.44766500  0.43623000  0.82305700  1
  O  O41  1  0.25865700  0.80888800  0.07713100  1
  O  O42  1  0.64843600  0.76078100  0.74661700  1
  O  O43  1  0.25949100  0.49310300  0.51127500  1
