# generated using pymatgen
data_SrGeO3
_symmetry_space_group_name_H-M   'P 1'
_cell_length_a   8.77188300
_cell_length_b   10.07480729
_cell_length_c   11.31029443
_cell_angle_alpha   106.09496291
_cell_angle_beta   89.91154083
_cell_angle_gamma   102.09578543
_symmetry_Int_Tables_number   1
_chemical_formula_structural   SrGeO3
_chemical_formula_sum   'Sr12 Ge12 O36'
_cell_volume   937.34473242
_cell_formula_units_Z   12
loop_
 _symmetry_equiv_pos_site_id
 _symmetry_equiv_pos_as_xyz
  1  'x, y, z'
loop_
 _atom_site_type_symbol
 _atom_site_label
 _atom_site_symmetry_multiplicity
 _atom_site_fract_x
 _atom_site_fract_y
 _atom_site_fract_z
 _atom_site_occupancy
  Sr  Sr0  1  0.40157100  0.64980500  0.48568000  1
  Sr  Sr1  1  0.25120600  0.00243100  0.49203900  1
  Sr  Sr2  1  0.08324700  0.35046200  0.66405800  1
  Sr  Sr3  1  0.07769600  0.34202700  0.01296400  1
  Sr  Sr4  1  0.43092900  0.64939800  0.84266600  1
  Sr  Sr5  1  0.59842900  0.35019500  0.51432000  1
  Sr  Sr6  1  0.74810500  0.00222500  0.01001000  1
  Sr  Sr7  1  0.56907100  0.35060200  0.15733400  1
  Sr  Sr8  1  0.74879400  0.99756900  0.50796100  1
  Sr  Sr9  1  0.91675300  0.64953800  0.33594200  1
  Sr  Sr10  1  0.25189500  0.99777500  0.98999000  1
  Sr  Sr11  1  0.92230400  0.65797300  0.98703600  1
  Ge  Ge12  1  0.75556000  0.70524000  0.71091800  1
  Ge  Ge13  1  0.10071200  0.70401900  0.64035400  1
  Ge  Ge14  1  0.25994400  0.70383000  0.13874200  1
  Ge  Ge15  1  0.24444000  0.29476000  0.28908200  1
  Ge  Ge16  1  0.89928800  0.29598100  0.35964600  1
  Ge  Ge17  1  0.39450700  0.29082400  0.78321300  1
  Ge  Ge18  1  0.49684600  0.99522800  0.24939000  1
  Ge  Ge19  1  0.60549300  0.70917600  0.21678700  1
  Ge  Ge20  1  0.74005600  0.29617000  0.86125800  1
  Ge  Ge21  1  0.99715300  0.99358000  0.74848900  1
  Ge  Ge22  1  0.00284700  0.00642000  0.25151100  1
  Ge  Ge23  1  0.50315400  0.00477200  0.75061000  1
  O  O24  1  0.59035200  0.39075500  0.84305300  1
  O  O25  1  0.74325700  0.73943800  0.87079000  1
  O  O26  1  0.26952600  0.39664100  0.85887600  1
  O  O27  1  0.77325400  0.39769100  0.32952600  1
  O  O28  1  0.73047400  0.60335900  0.14112400  1
  O  O29  1  0.18518100  0.12871400  0.32619600  1
  O  O30  1  0.95472900  0.91333800  0.35908400  1
  O  O31  1  0.31499400  0.86849500  0.26061500  1
  O  O32  1  0.90261700  0.60648900  0.64680700  1
  O  O33  1  0.99470000  0.08420300  0.90285200  1
  O  O34  1  0.00530000  0.91579700  0.09714800  1
  O  O35  1  0.54239000  0.08540600  0.40354500  1
  O  O36  1  0.42104600  0.39656100  0.36528200  1
  O  O37  1  0.68500600  0.13150500  0.73938500  1
  O  O38  1  0.25029400  0.73970500  0.99636100  1
  O  O39  1  0.81481900  0.87128600  0.67380400  1
  O  O40  1  0.91956800  0.40296400  0.84564700  1
  O  O41  1  0.62393700  0.87350900  0.17755200  1
  O  O42  1  0.36838600  0.26343500  0.62422300  1
  O  O43  1  0.04527100  0.08666200  0.64091600  1
  O  O44  1  0.08043200  0.59703600  0.15435300  1
  O  O45  1  0.74970600  0.26029500  0.00363900  1
  O  O46  1  0.88233400  0.13200000  0.23851700  1
  O  O47  1  0.13374600  0.73840600  0.49788400  1
  O  O48  1  0.37606300  0.12649100  0.82244800  1
  O  O49  1  0.50389000  0.91397700  0.86008600  1
  O  O50  1  0.09738300  0.39351100  0.35319300  1
  O  O51  1  0.22674600  0.60230900  0.67047400  1
  O  O52  1  0.86625400  0.26159400  0.50211600  1
  O  O53  1  0.63161400  0.73656500  0.37577700  1
  O  O54  1  0.57895400  0.60343900  0.63471800  1
  O  O55  1  0.45761000  0.91459400  0.59645500  1
  O  O56  1  0.40964800  0.60924500  0.15694700  1
  O  O57  1  0.25674300  0.26056200  0.12921000  1
  O  O58  1  0.49611000  0.08602300  0.13991400  1
  O  O59  1  0.11766600  0.86800000  0.76148300  1
