# generated using pymatgen
data_CsAlF4
_symmetry_space_group_name_H-M   'P 1'
_cell_length_a   9.63109531
_cell_length_b   9.63109531
_cell_length_c   3.77101800
_cell_angle_alpha   90.00000000
_cell_angle_beta   90.00000000
_cell_angle_gamma   119.99999523
_symmetry_Int_Tables_number   1
_chemical_formula_structural   CsAlF4
_chemical_formula_sum   'Cs3 Al3 F12'
_cell_volume   302.92883799
_cell_formula_units_Z   3
loop_
 _symmetry_equiv_pos_site_id
 _symmetry_equiv_pos_as_xyz
  1  'x, y, z'
loop_
 _atom_site_type_symbol
 _atom_site_label
 _atom_site_symmetry_multiplicity
 _atom_site_fract_x
 _atom_site_fract_y
 _atom_site_fract_z
 _atom_site_occupancy
  Cs  Cs0  1  0.00000000  0.56868400  0.50000000  1
  Cs  Cs1  1  0.43131600  0.43131600  0.50000000  1
  Cs  Cs2  1  0.56868400  0.00000000  0.50000000  1
  Al  Al3  1  0.21644900  0.00000000  0.00000000  1
  Al  Al4  1  0.78355100  0.78355100  0.00000000  1
  Al  Al5  1  0.00000000  0.21644900  0.00000000  1
  F  F6  1  0.20792700  0.00000000  0.50000000  1
  F  F7  1  0.00000000  0.20792700  0.50000000  1
  F  F8  1  0.41968600  0.15651400  0.00000000  1
  F  F9  1  0.00000000  0.84556300  0.00000000  1
  F  F10  1  0.84556300  0.00000000  0.00000000  1
  F  F11  1  0.15651400  0.41968600  0.00000000  1
  F  F12  1  0.73682800  0.58031400  0.00000000  1
  F  F13  1  0.84348600  0.26317200  0.00000000  1
  F  F14  1  0.79207300  0.79207300  0.50000000  1
  F  F15  1  0.58031400  0.73682800  0.00000000  1
  F  F16  1  0.26317200  0.84348600  0.00000000  1
  F  F17  1  0.15443700  0.15443700  0.00000000  1
