# generated using pymatgen
data_ZnS
_symmetry_space_group_name_H-M   'P 1'
_cell_length_a   3.85036483
_cell_length_b   3.85036483
_cell_length_c   75.56650500
_cell_angle_alpha   90.00000000
_cell_angle_beta   90.00000000
_cell_angle_gamma   120.00001432
_symmetry_Int_Tables_number   1
_chemical_formula_structural   ZnS
_chemical_formula_sum   'Zn24 S24'
_cell_volume   970.20535992
_cell_formula_units_Z   24
loop_
 _symmetry_equiv_pos_site_id
 _symmetry_equiv_pos_as_xyz
  1  'x, y, z'
loop_
 _atom_site_type_symbol
 _atom_site_label
 _atom_site_symmetry_multiplicity
 _atom_site_fract_x
 _atom_site_fract_y
 _atom_site_fract_z
 _atom_site_occupancy
  Zn  Zn0  1  0.00000000  0.00000000  0.83332100  1
  Zn  Zn1  1  0.66666700  0.33333300  0.79169400  1
  Zn  Zn2  1  0.00000000  0.00000000  0.33333800  1
  Zn  Zn3  1  0.66666700  0.33333300  0.29169600  1
  Zn  Zn4  1  0.33333300  0.66666700  0.37498600  1
  Zn  Zn5  1  0.66666700  0.33333300  0.20832100  1
  Zn  Zn6  1  0.66666700  0.33333300  0.70832000  1
  Zn  Zn7  1  0.00000000  0.00000000  0.08332100  1
  Zn  Zn8  1  0.33333300  0.66666700  0.54167700  1
  Zn  Zn9  1  0.00000000  0.00000000  0.91669400  1
  Zn  Zn10  1  0.33333300  0.66666700  0.12500500  1
  Zn  Zn11  1  0.00000000  0.00000000  0.16669400  1
  Zn  Zn12  1  0.66666700  0.33333300  0.04169400  1
  Zn  Zn13  1  0.33333300  0.66666700  0.87500500  1
  Zn  Zn14  1  0.66666700  0.33333300  0.41667100  1
  Zn  Zn15  1  0.33333300  0.66666700  0.62502800  1
  Zn  Zn16  1  0.66666700  0.33333300  0.95832100  1
  Zn  Zn17  1  0.33333300  0.66666700  0.45834300  1
  Zn  Zn18  1  0.66666700  0.33333300  0.58334000  1
  Zn  Zn19  1  0.33333300  0.66666700  0.25000500  1
  Zn  Zn20  1  0.00000000  0.00000000  0.66667200  1
  Zn  Zn21  1  0.00000000  0.00000000  0.50000500  1
  Zn  Zn22  1  0.33333300  0.66666700  0.00000500  1
  Zn  Zn23  1  0.33333300  0.66666700  0.75000500  1
  S  S24  1  0.00000000  0.00000000  0.94791000  1
  S  S25  1  0.33333300  0.66666700  0.48954600  1
  S  S26  1  0.33333300  0.66666700  0.40620500  1
  S  S27  1  0.33333300  0.66666700  0.65624900  1
  S  S28  1  0.00000000  0.00000000  0.69790400  1
  S  S29  1  0.66666700  0.33333300  0.44794200  1
  S  S30  1  0.33333300  0.66666700  0.03128000  1
  S  S31  1  0.00000000  0.00000000  0.53127500  1
  S  S32  1  0.66666700  0.33333300  0.98953900  1
  S  S33  1  0.33333300  0.66666700  0.78128000  1
  S  S34  1  0.33333300  0.66666700  0.57288000  1
  S  S35  1  0.33333300  0.66666700  0.90628000  1
  S  S36  1  0.66666700  0.33333300  0.73953900  1
  S  S37  1  0.33333300  0.66666700  0.28128100  1
  S  S38  1  0.00000000  0.00000000  0.36456800  1
  S  S39  1  0.66666700  0.33333300  0.07291000  1
  S  S40  1  0.00000000  0.00000000  0.11453900  1
  S  S41  1  0.00000000  0.00000000  0.86453900  1
  S  S42  1  0.66666700  0.33333300  0.82291000  1
  S  S43  1  0.33333300  0.66666700  0.15628000  1
  S  S44  1  0.66666700  0.33333300  0.23953900  1
  S  S45  1  0.66666700  0.33333300  0.61461400  1
  S  S46  1  0.66666700  0.33333300  0.32291600  1
  S  S47  1  0.00000000  0.00000000  0.19791000  1
