# generated using pymatgen
data_Al(HO)3
_symmetry_space_group_name_H-M   'P 1'
_cell_length_a   5.03957900
_cell_length_b   5.09405100
_cell_length_c   5.35956717
_cell_angle_alpha   105.95954051
_cell_angle_beta   98.89443058
_cell_angle_gamma   119.00328022
_symmetry_Int_Tables_number   1
_chemical_formula_structural   Al(HO)3
_chemical_formula_sum   'Al2 H6 O6'
_cell_volume   108.70299827
_cell_formula_units_Z   2
loop_
 _symmetry_equiv_pos_site_id
 _symmetry_equiv_pos_as_xyz
  1  'x, y, z'
loop_
 _atom_site_type_symbol
 _atom_site_label
 _atom_site_symmetry_multiplicity
 _atom_site_fract_x
 _atom_site_fract_y
 _atom_site_fract_z
 _atom_site_occupancy
  Al  Al0  1  0.17151600  0.33399300  0.00215800  1
  Al  Al1  1  0.82848400  0.66600700  0.99784200  1
  H  H2  1  0.58598500  0.91391400  0.79779800  1
  H  H3  1  0.08907800  0.63090200  0.40684000  1
  H  H4  1  0.41401500  0.08608600  0.20220200  1
  H  H5  1  0.91092200  0.36909800  0.59316000  1
  H  H6  1  0.66271400  0.78195200  0.41409500  1
  H  H7  1  0.33728600  0.21804800  0.58590500  1
  O  O8  1  0.22614500  0.09650900  0.21017300  1
  O  O9  1  0.04183200  0.52434700  0.78408000  1
  O  O10  1  0.95816800  0.47565300  0.21592000  1
  O  O11  1  0.41506200  0.26664800  0.78444500  1
  O  O12  1  0.77385500  0.90349100  0.78982700  1
  O  O13  1  0.58493800  0.73335200  0.21555500  1
