# generated using pymatgen
data_Sr(GaO2)2
_symmetry_space_group_name_H-M   'P 1'
_cell_length_a   10.87682600
_cell_length_b   8.21509300
_cell_length_c   12.13875291
_cell_angle_alpha   49.12723973
_cell_angle_beta   90.00000000
_cell_angle_gamma   90.00000000
_symmetry_Int_Tables_number   1
_chemical_formula_structural   Sr(GaO2)2
_chemical_formula_sum   'Sr8 Ga16 O32'
_cell_volume   820.17233193
_cell_formula_units_Z   8
loop_
 _symmetry_equiv_pos_site_id
 _symmetry_equiv_pos_as_xyz
  1  'x, y, z'
loop_
 _atom_site_type_symbol
 _atom_site_label
 _atom_site_symmetry_multiplicity
 _atom_site_fract_x
 _atom_site_fract_y
 _atom_site_fract_z
 _atom_site_occupancy
  Sr  Sr0  1  0.89045500  0.27976100  0.22517000  1
  Sr  Sr1  1  0.10954500  0.72023900  0.77483000  1
  Sr  Sr2  1  0.60954500  0.27976100  0.72517000  1
  Sr  Sr3  1  0.15226000  0.29655200  0.70008300  1
  Sr  Sr4  1  0.39045500  0.72023900  0.27483000  1
  Sr  Sr5  1  0.65226000  0.70344800  0.79991700  1
  Sr  Sr6  1  0.34774000  0.29655200  0.20008300  1
  Sr  Sr7  1  0.84774000  0.70344800  0.29991700  1
  Ga  Ga8  1  0.63489100  0.09925300  0.09254300  1
  Ga  Ga9  1  0.63776500  0.84875800  0.43241200  1
  Ga  Ga10  1  0.86223500  0.84875800  0.93241200  1
  Ga  Ga11  1  0.86510900  0.09925300  0.59254300  1
  Ga  Ga12  1  0.88642700  0.24121400  0.93062200  1
  Ga  Ga13  1  0.88663200  0.66787500  0.59497600  1
  Ga  Ga14  1  0.38663200  0.33212500  0.90502400  1
  Ga  Ga15  1  0.13776500  0.15124200  0.06758800  1
  Ga  Ga16  1  0.38642700  0.75878600  0.56937800  1
  Ga  Ga17  1  0.11336800  0.33212500  0.40502400  1
  Ga  Ga18  1  0.61336800  0.66787500  0.09497600  1
  Ga  Ga19  1  0.13489100  0.90074700  0.40745700  1
  Ga  Ga20  1  0.61357300  0.24121400  0.43062200  1
  Ga  Ga21  1  0.11357300  0.75878600  0.06937800  1
  Ga  Ga22  1  0.36223500  0.15124200  0.56758800  1
  Ga  Ga23  1  0.36510900  0.90074700  0.90745700  1
  O  O24  1  0.74140000  0.60507900  0.54663100  1
  O  O25  1  0.28099900  0.96596900  0.74790300  1
  O  O26  1  0.51910800  0.25330500  0.55449700  1
  O  O27  1  0.78099900  0.03403100  0.75209700  1
  O  O28  1  0.52481200  0.80777500  0.92211800  1
  O  O29  1  0.02481200  0.19222500  0.57788200  1
  O  O30  1  0.88660900  0.81815900  0.66164000  1
  O  O31  1  0.48089200  0.74669500  0.44550300  1
  O  O32  1  0.63517500  0.95282400  0.52807400  1
  O  O33  1  0.24140000  0.39492100  0.95336900  1
  O  O34  1  0.47518800  0.19222500  0.07788200  1
  O  O35  1  0.96550400  0.41824300  0.75132700  1
  O  O36  1  0.21900100  0.96596900  0.24790300  1
  O  O37  1  0.01910800  0.74669500  0.94550300  1
  O  O38  1  0.53449600  0.41824300  0.25132700  1
  O  O39  1  0.13517500  0.04717600  0.97192600  1
  O  O40  1  0.25860000  0.39492100  0.45336900  1
  O  O41  1  0.21718400  0.68353400  0.58350400  1
  O  O42  1  0.71718400  0.31646600  0.91649600  1
  O  O43  1  0.98089200  0.25330500  0.05449700  1
  O  O44  1  0.28281600  0.68353400  0.08350400  1
  O  O45  1  0.38660900  0.18184100  0.83836000  1
  O  O46  1  0.71900100  0.03403100  0.25209700  1
  O  O47  1  0.46550400  0.58175700  0.74867300  1
  O  O48  1  0.97518800  0.80777500  0.42211800  1
  O  O49  1  0.86482500  0.95282400  0.02807400  1
  O  O50  1  0.36482500  0.04717600  0.47192600  1
  O  O51  1  0.75860000  0.60507900  0.04663100  1
  O  O52  1  0.03449600  0.58175700  0.24867300  1
  O  O53  1  0.78281600  0.31646600  0.41649600  1
  O  O54  1  0.61339100  0.81815900  0.16164000  1
  O  O55  1  0.11339100  0.18184100  0.33836000  1
