# generated using pymatgen
data_Zn2BiPO6
_symmetry_space_group_name_H-M   'P 1'
_cell_length_a   5.34038300
_cell_length_b   7.92246100
_cell_length_c   12.14436000
_cell_angle_alpha   90.00000000
_cell_angle_beta   90.00000000
_cell_angle_gamma   90.00000000
_symmetry_Int_Tables_number   1
_chemical_formula_structural   Zn2BiPO6
_chemical_formula_sum   'Zn8 Bi4 P4 O24'
_cell_volume   513.81543629
_cell_formula_units_Z   4
loop_
 _symmetry_equiv_pos_site_id
 _symmetry_equiv_pos_as_xyz
  1  'x, y, z'
loop_
 _atom_site_type_symbol
 _atom_site_label
 _atom_site_symmetry_multiplicity
 _atom_site_fract_x
 _atom_site_fract_y
 _atom_site_fract_z
 _atom_site_occupancy
  Zn  Zn0  1  0.25000000  0.70076800  0.90805000  1
  Zn  Zn1  1  0.75000000  0.20076800  0.59195000  1
  Zn  Zn2  1  0.75000000  0.80510700  0.60357200  1
  Zn  Zn3  1  0.75000000  0.29923200  0.09195000  1
  Zn  Zn4  1  0.25000000  0.79923200  0.40805000  1
  Zn  Zn5  1  0.25000000  0.19489300  0.39642800  1
  Zn  Zn6  1  0.75000000  0.69489300  0.10357200  1
  Zn  Zn7  1  0.25000000  0.30510700  0.89642800  1
  Bi  Bi8  1  0.75000000  0.98446000  0.90186400  1
  Bi  Bi9  1  0.75000000  0.51554000  0.40186400  1
  Bi  Bi10  1  0.25000000  0.48446000  0.59813600  1
  Bi  Bi11  1  0.25000000  0.01554000  0.09813600  1
  P  P12  1  0.75000000  0.97510200  0.30120900  1
  P  P13  1  0.25000000  0.02489800  0.69879100  1
  P  P14  1  0.75000000  0.52489800  0.80120900  1
  P  P15  1  0.25000000  0.47510200  0.19879100  1
  O  O16  1  0.00168600  0.32731400  0.49311800  1
  O  O17  1  0.99322900  0.99399700  0.37305800  1
  O  O18  1  0.49831400  0.17268600  0.99311800  1
  O  O19  1  0.25000000  0.60689700  0.29172000  1
  O  O20  1  0.00677100  0.00600300  0.62694200  1
  O  O21  1  0.99322900  0.50600300  0.87305800  1
  O  O22  1  0.00677100  0.49399700  0.12694200  1
  O  O23  1  0.25000000  0.29229600  0.24437100  1
  O  O24  1  0.75000000  0.39310300  0.70828000  1
  O  O25  1  0.49322900  0.00600300  0.62694200  1
  O  O26  1  0.00168600  0.17268600  0.99311800  1
  O  O27  1  0.99831400  0.82731400  0.00688200  1
  O  O28  1  0.49322900  0.49399700  0.12694200  1
  O  O29  1  0.50677100  0.50600300  0.87305800  1
  O  O30  1  0.25000000  0.20770400  0.74437100  1
  O  O31  1  0.49831400  0.32731400  0.49311800  1
  O  O32  1  0.50168600  0.82731400  0.00688200  1
  O  O33  1  0.50168600  0.67268600  0.50688200  1
  O  O34  1  0.99831400  0.67268600  0.50688200  1
  O  O35  1  0.75000000  0.10689700  0.20828000  1
  O  O36  1  0.75000000  0.79229600  0.25562900  1
  O  O37  1  0.50677100  0.99399700  0.37305800  1
  O  O38  1  0.25000000  0.89310300  0.79172000  1
  O  O39  1  0.75000000  0.70770400  0.75562900  1
