# generated using pymatgen
data_Te3I(OF5)3
_symmetry_space_group_name_H-M   'P 1'
_cell_length_a   10.01522200
_cell_length_b   10.68153400
_cell_length_c   14.90210799
_cell_angle_alpha   88.14114257
_cell_angle_beta   90.00000000
_cell_angle_gamma   90.00000000
_symmetry_Int_Tables_number   1
_chemical_formula_structural   Te3I(OF5)3
_chemical_formula_sum   'Te12 I4 O12 F60'
_cell_volume   1593.35780975
_cell_formula_units_Z   4
loop_
 _symmetry_equiv_pos_site_id
 _symmetry_equiv_pos_as_xyz
  1  'x, y, z'
loop_
 _atom_site_type_symbol
 _atom_site_label
 _atom_site_symmetry_multiplicity
 _atom_site_fract_x
 _atom_site_fract_y
 _atom_site_fract_z
 _atom_site_occupancy
  Te  Te0  1  0.28005000  0.31526000  0.55422700  1
  Te  Te1  1  0.78005000  0.18474000  0.44577300  1
  Te  Te2  1  0.15793200  0.60241000  0.21005800  1
  Te  Te3  1  0.64189700  0.62578700  0.11362600  1
  Te  Te4  1  0.71995000  0.68474000  0.44577300  1
  Te  Te5  1  0.84206800  0.39759000  0.78994200  1
  Te  Te6  1  0.65793200  0.89759000  0.78994200  1
  Te  Te7  1  0.14189700  0.87421300  0.88637400  1
  Te  Te8  1  0.35810300  0.37421300  0.88637400  1
  Te  Te9  1  0.21995000  0.81526000  0.55422700  1
  Te  Te10  1  0.85810300  0.12578700  0.11362600  1
  Te  Te11  1  0.34206800  0.10241000  0.21005800  1
  I  I12  1  0.47413500  0.53599800  0.30848100  1
  I  I13  1  0.02586500  0.03599800  0.30848100  1
  I  I14  1  0.97413500  0.96400200  0.69151900  1
  I  I15  1  0.52586500  0.46400200  0.69151900  1
  O  O16  1  0.18799900  0.99891100  0.22861300  1
  O  O17  1  0.53440200  0.66327100  0.22048900  1
  O  O18  1  0.65769000  0.55188500  0.37565800  1
  O  O19  1  0.96559800  0.16327100  0.22048900  1
  O  O20  1  0.46559800  0.33672900  0.77951100  1
  O  O21  1  0.15769000  0.94811500  0.62434200  1
  O  O22  1  0.84231000  0.05188500  0.37565800  1
  O  O23  1  0.03440200  0.83672900  0.77951100  1
  O  O24  1  0.68799900  0.50108900  0.77138700  1
  O  O25  1  0.34231000  0.44811500  0.62434200  1
  O  O26  1  0.31200100  0.49891100  0.22861300  1
  O  O27  1  0.81200100  0.00108900  0.77138700  1
  F  F28  1  0.07413500  0.53817600  0.31459900  1
  F  F29  1  0.85622800  0.58240100  0.49292900  1
  F  F30  1  0.10890500  0.86593300  0.45483100  1
  F  F31  1  0.08483500  0.70391000  0.59375300  1
  F  F32  1  0.83514000  0.74739800  0.35548900  1
  F  F33  1  0.45269100  0.52351400  0.90346200  1
  F  F34  1  0.00879100  0.70526100  0.19042000  1
  F  F35  1  0.92350000  0.52226000  0.85638400  1
  F  F36  1  0.76593300  0.53551800  0.18453100  1
  F  F37  1  0.98164400  0.21514800  0.04283700  1
  F  F38  1  0.23088600  0.67408500  0.10435500  1
  F  F39  1  0.23478200  0.72549400  0.86835100  1
  F  F40  1  0.49120900  0.20526100  0.19042000  1
  F  F41  1  0.89109500  0.13406700  0.54516900  1
  F  F42  1  0.57413500  0.96182400  0.68540100  1
  F  F43  1  0.73088600  0.82591500  0.89564500  1
  F  F44  1  0.04730900  0.02351400  0.90346200  1
  F  F45  1  0.50879100  0.79473900  0.80958000  1
  F  F46  1  0.78283600  0.81221100  0.51861500  1
  F  F47  1  0.51835600  0.71514800  0.04283700  1
  F  F48  1  0.35622800  0.91759900  0.50707100  1
  F  F49  1  0.66486000  0.24739800  0.35548900  1
  F  F50  1  0.24454400  0.90457700  0.98741700  1
  F  F51  1  0.73478200  0.77450600  0.13164900  1
  F  F52  1  0.64377200  0.08240100  0.49292900  1
  F  F53  1  0.58483500  0.79609000  0.40624700  1
  F  F54  1  0.76521800  0.27450600  0.13164900  1
  F  F55  1  0.74454400  0.59542300  0.01258300  1
  F  F56  1  0.33514000  0.75260200  0.64451100  1
  F  F57  1  0.23170900  0.73268000  0.27739900  1
  F  F58  1  0.16486000  0.25260200  0.64451100  1
  F  F59  1  0.26593300  0.96448200  0.81546900  1
  F  F60  1  0.39109500  0.36593300  0.45483100  1
  F  F61  1  0.42586500  0.03817600  0.31459900  1
  F  F62  1  0.25545600  0.40457700  0.98741700  1
  F  F63  1  0.54730900  0.47648600  0.09653800  1
  F  F64  1  0.99120900  0.29473900  0.80958000  1
  F  F65  1  0.14377200  0.41759900  0.50707100  1
  F  F66  1  0.73406700  0.03551800  0.18453100  1
  F  F67  1  0.01835600  0.78485200  0.95716300  1
  F  F68  1  0.91516500  0.29609000  0.40624700  1
  F  F69  1  0.21716400  0.18778900  0.48138500  1
  F  F70  1  0.07650000  0.47774000  0.14361600  1
  F  F71  1  0.28283600  0.68778900  0.48138500  1
  F  F72  1  0.42350000  0.97774000  0.14361600  1
  F  F73  1  0.76829100  0.26732000  0.72260100  1
  F  F74  1  0.71716400  0.31221100  0.51861500  1
  F  F75  1  0.23406700  0.46448200  0.81546900  1
  F  F76  1  0.76911400  0.32591500  0.89564500  1
  F  F77  1  0.95269100  0.97648600  0.09653800  1
  F  F78  1  0.41516500  0.20391000  0.59375300  1
  F  F79  1  0.73170900  0.76732000  0.72260100  1
  F  F80  1  0.26521800  0.22549400  0.86835100  1
  F  F81  1  0.26911400  0.17408500  0.10435500  1
  F  F82  1  0.92586500  0.46182400  0.68540100  1
  F  F83  1  0.48164400  0.28485200  0.95716300  1
  F  F84  1  0.75545600  0.09542300  0.01258300  1
  F  F85  1  0.57650000  0.02226000  0.85638400  1
  F  F86  1  0.26829100  0.23268000  0.27739900  1
  F  F87  1  0.60890500  0.63406700  0.54516900  1
