# generated using pymatgen
data_NaY(PO3)4
_symmetry_space_group_name_H-M   'P 1'
_cell_length_a   13.20484300
_cell_length_b   7.26931400
_cell_length_c   12.17680873
_cell_angle_alpha   53.79873030
_cell_angle_beta   90.00000000
_cell_angle_gamma   90.00000000
_symmetry_Int_Tables_number   1
_chemical_formula_structural   NaY(PO3)4
_chemical_formula_sum   'Na4 Y4 P16 O48'
_cell_volume   943.20324635
_cell_formula_units_Z   4
loop_
 _symmetry_equiv_pos_site_id
 _symmetry_equiv_pos_as_xyz
  1  'x, y, z'
loop_
 _atom_site_type_symbol
 _atom_site_label
 _atom_site_symmetry_multiplicity
 _atom_site_fract_x
 _atom_site_fract_y
 _atom_site_fract_z
 _atom_site_occupancy
  Na  Na0  1  0.22199600  0.93761600  0.06162900  1
  Na  Na1  1  0.72199600  0.06238400  0.43837100  1
  Na  Na2  1  0.27800400  0.93761600  0.56162900  1
  Na  Na3  1  0.77800400  0.06238400  0.93837100  1
  Y  Y4  1  0.27968000  0.53509300  0.47725500  1
  Y  Y5  1  0.77968000  0.46490700  0.02274500  1
  Y  Y6  1  0.72032000  0.46490700  0.52274500  1
  Y  Y7  1  0.22032000  0.53509300  0.97725500  1
  P  P8  1  0.10294600  0.00592500  0.24458100  1
  P  P9  1  0.09224100  0.56361700  0.70337400  1
  P  P10  1  0.90775900  0.43638300  0.29662600  1
  P  P11  1  0.59224100  0.43638300  0.79662600  1
  P  P12  1  0.37236800  0.34457200  0.80248500  1
  P  P13  1  0.61474200  0.88840400  0.73676700  1
  P  P14  1  0.60294600  0.99407500  0.25541900  1
  P  P15  1  0.40775900  0.56361700  0.20337400  1
  P  P16  1  0.38525800  0.11159600  0.26323300  1
  P  P17  1  0.39705400  0.00592500  0.74458100  1
  P  P18  1  0.62763200  0.65542800  0.19751500  1
  P  P19  1  0.87236800  0.65542800  0.69751500  1
  P  P20  1  0.11474200  0.11159600  0.76323300  1
  P  P21  1  0.89705400  0.99407500  0.75541900  1
  P  P22  1  0.12763200  0.34457200  0.30248500  1
  P  P23  1  0.88525800  0.88840400  0.23676700  1
  O  O24  1  0.35163600  0.89915900  0.39646200  1
  O  O25  1  0.31279100  0.22198700  0.14636400  1
  O  O26  1  0.11156800  0.19253600  0.09440300  1
  O  O27  1  0.11322900  0.62697300  0.79835900  1
  O  O28  1  0.68720900  0.77801300  0.85363600  1
  O  O29  1  0.83330500  0.20382500  0.70126100  1
  O  O30  1  0.02013800  0.35538100  0.36104800  1
  O  O31  1  0.83720400  0.34788400  0.41457300  1
  O  O32  1  0.79136400  0.67024000  0.60609700  1
  O  O33  1  0.36606500  0.52252000  0.65159300  1
  O  O34  1  0.58122300  0.71086500  0.70480300  1
  O  O35  1  0.12548800  0.09382500  0.33614700  1
  O  O36  1  0.98772700  0.92675800  0.29047100  1
  O  O37  1  0.63393500  0.47748000  0.34840700  1
  O  O38  1  0.64836400  0.10084100  0.60353800  1
  O  O39  1  0.85163600  0.10084100  0.10353800  1
  O  O40  1  0.47986200  0.35538100  0.86104800  1
  O  O41  1  0.18720900  0.22198700  0.64636400  1
  O  O42  1  0.38843200  0.19253600  0.59440300  1
  O  O43  1  0.13393500  0.52252000  0.15159300  1
  O  O44  1  0.41877700  0.28913500  0.29519700  1
  O  O45  1  0.52013800  0.64461900  0.13895200  1
  O  O46  1  0.33720400  0.65211600  0.08542700  1
  O  O47  1  0.66279600  0.34788400  0.91457300  1
  O  O48  1  0.16279600  0.65211600  0.58542700  1
  O  O49  1  0.38677100  0.62697300  0.29835900  1
  O  O50  1  0.14836400  0.89915900  0.89646200  1
  O  O51  1  0.81279100  0.77801300  0.35363600  1
  O  O52  1  0.88677100  0.37302700  0.20164100  1
  O  O53  1  0.29136400  0.32976000  0.89390300  1
  O  O54  1  0.61156800  0.80746400  0.40559700  1
  O  O55  1  0.88843200  0.80746400  0.90559700  1
  O  O56  1  0.62548800  0.90617500  0.16385300  1
  O  O57  1  0.01227300  0.07324200  0.70952900  1
  O  O58  1  0.86606500  0.47748000  0.84840700  1
  O  O59  1  0.61322900  0.37302700  0.70164100  1
  O  O60  1  0.33330500  0.79617500  0.79873900  1
  O  O61  1  0.37451200  0.09382500  0.83614700  1
  O  O62  1  0.20863600  0.32976000  0.39390300  1
  O  O63  1  0.87451200  0.90617500  0.66385300  1
  O  O64  1  0.08122300  0.28913500  0.79519700  1
  O  O65  1  0.70863600  0.67024000  0.10609700  1
  O  O66  1  0.51227300  0.92675800  0.79047100  1
  O  O67  1  0.66669500  0.20382500  0.20126100  1
  O  O68  1  0.48772700  0.07324200  0.20952900  1
  O  O69  1  0.97986200  0.64461900  0.63895200  1
  O  O70  1  0.91877700  0.71086500  0.20480300  1
  O  O71  1  0.16669500  0.79617500  0.29873900  1
