# generated using pymatgen
data_AlF3
_symmetry_space_group_name_H-M   'P 1'
_cell_length_a   11.63012400
_cell_length_b   11.63012400
_cell_length_c   3.64073000
_cell_angle_alpha   90.00000000
_cell_angle_beta   90.00000000
_cell_angle_gamma   90.00000000
_symmetry_Int_Tables_number   1
_chemical_formula_structural   AlF3
_chemical_formula_sum   'Al10 F30'
_cell_volume   492.44435433
_cell_formula_units_Z   10
loop_
 _symmetry_equiv_pos_site_id
 _symmetry_equiv_pos_as_xyz
  1  'x, y, z'
loop_
 _atom_site_type_symbol
 _atom_site_label
 _atom_site_symmetry_multiplicity
 _atom_site_fract_x
 _atom_site_fract_y
 _atom_site_fract_z
 _atom_site_occupancy
  Al  Al0  1  0.42435300  0.70799300  0.00000000  1
  Al  Al1  1  0.70799300  0.57564700  0.00000000  1
  Al  Al2  1  0.20799300  0.92435300  0.00000000  1
  Al  Al3  1  0.29200700  0.42435300  0.00000000  1
  Al  Al4  1  0.79200700  0.07564700  0.00000000  1
  Al  Al5  1  0.92435300  0.79200700  0.00000000  1
  Al  Al6  1  0.07564700  0.20799300  0.00000000  1
  Al  Al7  1  0.57564700  0.29200700  0.00000000  1
  Al  Al8  1  0.00000000  0.50000000  0.00000000  1
  Al  Al9  1  0.50000000  0.00000000  0.00000000  1
  F  F10  1  0.00004700  0.34455800  0.00000000  1
  F  F11  1  0.35877200  0.56741900  0.00000000  1
  F  F12  1  0.92329000  0.79210600  0.50000000  1
  F  F13  1  0.71516900  0.21516900  0.00000000  1
  F  F14  1  0.29210600  0.42329000  0.50000000  1
  F  F15  1  0.06741900  0.85877200  0.00000000  1
  F  F16  1  0.43258100  0.35877200  0.00000000  1
  F  F17  1  0.28483100  0.78483100  0.00000000  1
  F  F18  1  0.78483100  0.71516900  0.00000000  1
  F  F19  1  0.84455800  0.50004700  0.00000000  1
  F  F20  1  0.70789400  0.57671000  0.50000000  1
  F  F21  1  0.07671000  0.20789400  0.50000000  1
  F  F22  1  0.56741900  0.64122800  0.00000000  1
  F  F23  1  0.15544200  0.49995300  0.00000000  1
  F  F24  1  0.64122800  0.43258100  0.00000000  1
  F  F25  1  0.49995300  0.84455800  0.00000000  1
  F  F26  1  0.57671000  0.29210600  0.50000000  1
  F  F27  1  0.14122800  0.06741900  0.00000000  1
  F  F28  1  0.93258100  0.14122800  0.00000000  1
  F  F29  1  0.42329000  0.70789400  0.50000000  1
  F  F30  1  0.50000000  0.00000000  0.50000000  1
  F  F31  1  0.65544200  0.00004700  0.00000000  1
  F  F32  1  0.50004700  0.15544200  0.00000000  1
  F  F33  1  0.79210600  0.07671000  0.50000000  1
  F  F34  1  0.85877200  0.93258100  0.00000000  1
  F  F35  1  0.34455800  0.99995300  0.00000000  1
  F  F36  1  0.20789400  0.92329000  0.50000000  1
  F  F37  1  0.99995300  0.65544200  0.00000000  1
  F  F38  1  0.21516900  0.28483100  0.00000000  1
  F  F39  1  0.00000000  0.50000000  0.50000000  1
