# generated using pymatgen
data_PH9C(NO)4
_symmetry_space_group_name_H-M   'P 1'
_cell_length_a   6.90614100
_cell_length_b   7.24909841
_cell_length_c   7.46517402
_cell_angle_alpha   86.87737030
_cell_angle_beta   81.05247597
_cell_angle_gamma   78.69700875
_symmetry_Int_Tables_number   1
_chemical_formula_structural   PH9C(NO)4
_chemical_formula_sum   'P2 H18 C2 N8 O8'
_cell_volume   361.91179455
_cell_formula_units_Z   2
loop_
 _symmetry_equiv_pos_site_id
 _symmetry_equiv_pos_as_xyz
  1  'x, y, z'
loop_
 _atom_site_type_symbol
 _atom_site_label
 _atom_site_symmetry_multiplicity
 _atom_site_fract_x
 _atom_site_fract_y
 _atom_site_fract_z
 _atom_site_occupancy
  P  P0  1  0.30214500  0.75829200  0.99187000  1
  P  P1  1  0.69785500  0.24170800  0.00813000  1
  H  H2  1  0.94332600  0.77553800  0.26622100  1
  H  H3  1  0.23010700  0.68927100  0.62403700  1
  H  H4  1  0.50000000  0.00000000  0.00000000  1
  H  H5  1  0.69978900  0.78476200  0.71941100  1
  H  H6  1  0.54436000  0.50337100  0.15722400  1
  H  H7  1  0.60734100  0.92994500  0.35166700  1
  H  H8  1  0.39241400  0.29586900  0.64864200  1
  H  H9  1  0.60758600  0.70413100  0.35135800  1
  H  H10  1  0.30021100  0.21523800  0.28058900  1
  H  H11  1  0.39265900  0.07005500  0.64833300  1
  H  H12  1  0.05667400  0.22446200  0.73377900  1
  H  H13  1  0.07947500  0.24616300  0.18224600  1
  H  H14  1  0.76989300  0.31072900  0.37596300  1
  H  H15  1  0.45564000  0.49662900  0.84277600  1
  H  H16  1  0.23390000  0.70716800  0.38611300  1
  H  H17  1  0.92052500  0.75383700  0.81775400  1
  H  H18  1  0.76610000  0.29283200  0.61388700  1
  H  H19  1  0.00000000  0.00000000  0.00000000  1
  C  C20  1  0.95697700  0.74978300  0.54028400  1
  C  C21  1  0.04302300  0.25021700  0.45971600  1
  N  N22  1  0.84393400  0.27113300  0.48462600  1
  N  N23  1  0.14840500  0.24604900  0.29352400  1
  N  N24  1  0.65337400  0.80438200  0.41697900  1
  N  N25  1  0.13705900  0.23363500  0.60638400  1
  N  N26  1  0.34662600  0.19561800  0.58302100  1
  N  N27  1  0.85159500  0.75395100  0.70647600  1
  N  N28  1  0.86294100  0.76636500  0.39361600  1
  N  N29  1  0.15606600  0.72886700  0.51537400  1
  O  O30  1  0.41886400  0.91285200  0.90997500  1
  O  O31  1  0.33092800  0.60433200  0.84057900  1
  O  O32  1  0.58113600  0.08714800  0.09002500  1
  O  O33  1  0.62692700  0.33538900  0.83528400  1
  O  O34  1  0.07243600  0.83591500  0.02222600  1
  O  O35  1  0.92756400  0.16408500  0.97777400  1
  O  O36  1  0.37307300  0.66461100  0.16471600  1
  O  O37  1  0.66907200  0.39566800  0.15942100  1
