# generated using pymatgen
data_BaAlF5
_symmetry_space_group_name_H-M   'P 1'
_cell_length_a   19.85039200
_cell_length_b   5.24880100
_cell_length_c   9.12615415
_cell_angle_alpha   57.53161687
_cell_angle_beta   90.00000000
_cell_angle_gamma   90.00000000
_symmetry_Int_Tables_number   1
_chemical_formula_structural   BaAlF5
_chemical_formula_sum   'Ba8 Al8 F40'
_cell_volume   802.22976029
_cell_formula_units_Z   8
loop_
 _symmetry_equiv_pos_site_id
 _symmetry_equiv_pos_as_xyz
  1  'x, y, z'
loop_
 _atom_site_type_symbol
 _atom_site_label
 _atom_site_symmetry_multiplicity
 _atom_site_fract_x
 _atom_site_fract_y
 _atom_site_fract_z
 _atom_site_occupancy
  Ba  Ba0  1  0.45935600  0.54566500  0.24089800  1
  Ba  Ba1  1  0.26976400  0.78222200  0.47872600  1
  Ba  Ba2  1  0.54064400  0.45433500  0.75910200  1
  Ba  Ba3  1  0.76976400  0.21777800  0.02127400  1
  Ba  Ba4  1  0.95935600  0.45433500  0.25910200  1
  Ba  Ba5  1  0.73023600  0.21777800  0.52127400  1
  Ba  Ba6  1  0.23023600  0.78222200  0.97872600  1
  Ba  Ba7  1  0.04064400  0.54566500  0.74089800  1
  Al  Al8  1  0.13129400  0.28236100  0.46942800  1
  Al  Al9  1  0.60807800  0.91831500  0.34991400  1
  Al  Al10  1  0.39192200  0.08168500  0.65008600  1
  Al  Al11  1  0.86870600  0.71763900  0.53057200  1
  Al  Al12  1  0.89192200  0.91831500  0.84991400  1
  Al  Al13  1  0.10807800  0.08168500  0.15008600  1
  Al  Al14  1  0.36870600  0.28236100  0.96942800  1
  Al  Al15  1  0.63129400  0.71763900  0.03057200  1
  F  F16  1  0.15469700  0.45528200  0.58514200  1
  F  F17  1  0.15954800  0.91505100  0.64263000  1
  F  F18  1  0.71113200  0.63178300  0.14347100  1
  F  F19  1  0.34045200  0.91505100  0.14263000  1
  F  F20  1  0.45408600  0.21179300  0.05506900  1
  F  F21  1  0.38345700  0.06760700  0.45727200  1
  F  F22  1  0.01853500  0.13319300  0.11821400  1
  F  F23  1  0.89985900  0.89642500  0.65236600  1
  F  F24  1  0.98146500  0.86680700  0.88178600  1
  F  F25  1  0.84530300  0.54471800  0.41485800  1
  F  F26  1  0.28886800  0.36821700  0.85652900  1
  F  F27  1  0.38167600  0.48573300  0.51518100  1
  F  F28  1  0.39985900  0.10357500  0.84763400  1
  F  F29  1  0.40416400  0.65903400  0.78558800  1
  F  F30  1  0.34530300  0.45528200  0.08514200  1
  F  F31  1  0.30207500  0.02442700  0.68567500  1
  F  F32  1  0.78886800  0.63178300  0.64347100  1
  F  F33  1  0.48146500  0.13319300  0.61821400  1
  F  F34  1  0.88167600  0.51426700  0.98481900  1
  F  F35  1  0.65954800  0.08494900  0.85737000  1
  F  F36  1  0.90416400  0.34096600  0.71441200  1
  F  F37  1  0.09583600  0.65903400  0.28558800  1
  F  F38  1  0.19792500  0.02442700  0.18567500  1
  F  F39  1  0.80207500  0.97557300  0.81432500  1
  F  F40  1  0.95408600  0.78820700  0.44493100  1
  F  F41  1  0.61832400  0.51426700  0.48481900  1
  F  F42  1  0.04591400  0.21179300  0.55506900  1
  F  F43  1  0.51853500  0.86680700  0.38178600  1
  F  F44  1  0.11832400  0.48573300  0.01518100  1
  F  F45  1  0.60014100  0.89642500  0.15236600  1
  F  F46  1  0.61654300  0.93239300  0.54272800  1
  F  F47  1  0.84045200  0.08494900  0.35737000  1
  F  F48  1  0.21113200  0.36821700  0.35652900  1
  F  F49  1  0.11654300  0.06760700  0.95727200  1
  F  F50  1  0.54591400  0.78820700  0.94493100  1
  F  F51  1  0.88345700  0.93239300  0.04272800  1
  F  F52  1  0.59583600  0.34096600  0.21441200  1
  F  F53  1  0.69792500  0.97557300  0.31432500  1
  F  F54  1  0.10014100  0.10357500  0.34763400  1
  F  F55  1  0.65469700  0.54471800  0.91485800  1
