# generated using pymatgen
data_ZnS
_symmetry_space_group_name_H-M   'P 1'
_cell_length_a   3.85245174
_cell_length_b   3.85245174
_cell_length_c   88.18292700
_cell_angle_alpha   90.00000000
_cell_angle_beta   90.00000000
_cell_angle_gamma   119.99999556
_symmetry_Int_Tables_number   1
_chemical_formula_structural   ZnS
_chemical_formula_sum   'Zn28 S28'
_cell_volume   1133.41661655
_cell_formula_units_Z   28
loop_
 _symmetry_equiv_pos_site_id
 _symmetry_equiv_pos_as_xyz
  1  'x, y, z'
loop_
 _atom_site_type_symbol
 _atom_site_label
 _atom_site_symmetry_multiplicity
 _atom_site_fract_x
 _atom_site_fract_y
 _atom_site_fract_z
 _atom_site_occupancy
  Zn  Zn0  1  0.00000000  0.00000000  0.07143700  1
  Zn  Zn1  1  0.33333300  0.66666700  0.32143500  1
  Zn  Zn2  1  0.33333300  0.66666700  0.67857800  1
  Zn  Zn3  1  0.66666700  0.33333300  0.14286700  1
  Zn  Zn4  1  0.33333300  0.66666700  0.89286700  1
  Zn  Zn5  1  0.00000000  0.00000000  0.46429300  1
  Zn  Zn6  1  0.00000000  0.00000000  0.53573100  1
  Zn  Zn7  1  0.33333300  0.66666700  0.21429700  1
  Zn  Zn8  1  0.00000000  0.00000000  0.64286300  1
  Zn  Zn9  1  0.00000000  0.00000000  0.35715900  1
  Zn  Zn10  1  0.66666700  0.33333300  0.60715100  1
  Zn  Zn11  1  0.66666700  0.33333300  0.96429300  1
  Zn  Zn12  1  0.00000000  0.00000000  0.28571900  1
  Zn  Zn13  1  0.33333300  0.66666700  0.78572500  1
  Zn  Zn14  1  0.00000000  0.00000000  0.71430500  1
  Zn  Zn15  1  0.00000000  0.00000000  0.82146400  1
  Zn  Zn16  1  0.33333300  0.66666700  0.10715100  1
  Zn  Zn17  1  0.00000000  0.00000000  0.92858100  1
  Zn  Zn18  1  0.66666700  0.33333300  0.03573100  1
  Zn  Zn19  1  0.66666700  0.33333300  0.25001100  1
  Zn  Zn20  1  0.66666700  0.33333300  0.50000800  1
  Zn  Zn21  1  0.00000000  0.00000000  0.17858100  1
  Zn  Zn22  1  0.33333300  0.66666700  0.00000800  1
  Zn  Zn23  1  0.66666700  0.33333300  0.39286700  1
  Zn  Zn24  1  0.33333300  0.66666700  0.57143700  1
  Zn  Zn25  1  0.33333300  0.66666700  0.42858100  1
  Zn  Zn26  1  0.66666700  0.33333300  0.85715300  1
  Zn  Zn27  1  0.66666700  0.33333300  0.75001000  1
  S  S28  1  0.00000000  0.00000000  0.20534800  1
  S  S29  1  0.33333300  0.66666700  0.34822300  1
  S  S30  1  0.66666700  0.33333300  0.41963300  1
  S  S31  1  0.00000000  0.00000000  0.66961400  1
  S  S32  1  0.66666700  0.33333300  0.77677700  1
  S  S33  1  0.66666700  0.33333300  0.99104400  1
  S  S34  1  0.66666700  0.33333300  0.27677600  1
  S  S35  1  0.33333300  0.66666700  0.45534800  1
  S  S36  1  0.33333300  0.66666700  0.02679800  1
  S  S37  1  0.66666700  0.33333300  0.63391800  1
  S  S38  1  0.33333300  0.66666700  0.59820300  1
  S  S39  1  0.66666700  0.33333300  0.06248800  1
  S  S40  1  0.00000000  0.00000000  0.09820200  1
  S  S41  1  0.33333300  0.66666700  0.13391900  1
  S  S42  1  0.00000000  0.00000000  0.84822000  1
  S  S43  1  0.00000000  0.00000000  0.31247000  1
  S  S44  1  0.00000000  0.00000000  0.56248800  1
  S  S45  1  0.00000000  0.00000000  0.95534800  1
  S  S46  1  0.33333300  0.66666700  0.91963300  1
  S  S47  1  0.66666700  0.33333300  0.88391900  1
  S  S48  1  0.33333300  0.66666700  0.24106300  1
  S  S49  1  0.33333300  0.66666700  0.70537000  1
  S  S50  1  0.00000000  0.00000000  0.49104400  1
  S  S51  1  0.00000000  0.00000000  0.74106200  1
  S  S52  1  0.00000000  0.00000000  0.38391700  1
  S  S53  1  0.66666700  0.33333300  0.16963300  1
  S  S54  1  0.33333300  0.66666700  0.81250200  1
  S  S55  1  0.66666700  0.33333300  0.52679900  1
