# generated using pymatgen
data_UCO5
_symmetry_space_group_name_H-M   'P 1'
_cell_length_a   4.34859000
_cell_length_b   4.89102600
_cell_length_c   9.66548300
_cell_angle_alpha   90.00000000
_cell_angle_beta   90.00000000
_cell_angle_gamma   90.00000000
_symmetry_Int_Tables_number   1
_chemical_formula_structural   UCO5
_chemical_formula_sum   'U2 C2 O10'
_cell_volume   205.57580313
_cell_formula_units_Z   2
loop_
 _symmetry_equiv_pos_site_id
 _symmetry_equiv_pos_as_xyz
  1  'x, y, z'
loop_
 _atom_site_type_symbol
 _atom_site_label
 _atom_site_symmetry_multiplicity
 _atom_site_fract_x
 _atom_site_fract_y
 _atom_site_fract_z
 _atom_site_occupancy
  U  U0  1  0.76163900  0.00000000  0.50000000  1
  U  U1  1  0.23836100  0.50000000  0.00000000  1
  C  C2  1  0.62450000  0.00000000  0.00000000  1
  C  C3  1  0.37550000  0.50000000  0.50000000  1
  O  O4  1  0.24623600  0.73569800  0.50000000  1
  O  O5  1  0.75623700  0.00000000  0.68506600  1
  O  O6  1  0.24376300  0.50000000  0.81493400  1
  O  O7  1  0.75623700  0.00000000  0.31493400  1
  O  O8  1  0.32416300  0.00000000  0.00000000  1
  O  O9  1  0.75376400  0.23569800  0.00000000  1
  O  O10  1  0.67583700  0.50000000  0.50000000  1
  O  O11  1  0.75376400  0.76430200  0.00000000  1
  O  O12  1  0.24623600  0.26430200  0.50000000  1
  O  O13  1  0.24376300  0.50000000  0.18506600  1
