# generated using pymatgen
data_ZnS
_symmetry_space_group_name_H-M   'P 1'
_cell_length_a   3.84877482
_cell_length_b   3.84877482
_cell_length_c   81.84599700
_cell_angle_alpha   90.00000000
_cell_angle_beta   90.00000000
_cell_angle_gamma   120.00001403
_symmetry_Int_Tables_number   1
_chemical_formula_structural   ZnS
_chemical_formula_sum   'Zn26 S26'
_cell_volume   1049.96063787
_cell_formula_units_Z   26
loop_
 _symmetry_equiv_pos_site_id
 _symmetry_equiv_pos_as_xyz
  1  'x, y, z'
loop_
 _atom_site_type_symbol
 _atom_site_label
 _atom_site_symmetry_multiplicity
 _atom_site_fract_x
 _atom_site_fract_y
 _atom_site_fract_z
 _atom_site_occupancy
  Zn  Zn0  1  0.00000000  0.00000000  0.69229200  1
  Zn  Zn1  1  0.33333300  0.66666700  0.11537400  1
  Zn  Zn2  1  0.33333300  0.66666700  0.30770000  1
  Zn  Zn3  1  0.33333300  0.66666700  0.92304600  1
  Zn  Zn4  1  0.00000000  0.00000000  0.96152200  1
  Zn  Zn5  1  0.66666700  0.33333300  0.88460400  1
  Zn  Zn6  1  0.66666700  0.33333300  0.38460100  1
  Zn  Zn7  1  0.66666700  0.33333300  0.26921700  1
  Zn  Zn8  1  0.00000000  0.00000000  0.46152200  1
  Zn  Zn9  1  0.33333300  0.66666700  0.80775600  1
  Zn  Zn10  1  0.33333300  0.66666700  0.73093800  1
  Zn  Zn11  1  0.00000000  0.00000000  0.07691200  1
  Zn  Zn12  1  0.00000000  0.00000000  0.34614700  1
  Zn  Zn13  1  0.00000000  0.00000000  0.84615300  1
  Zn  Zn14  1  0.33333300  0.66666700  0.65381300  1
  Zn  Zn15  1  0.33333300  0.66666700  0.00001500  1
  Zn  Zn16  1  0.66666700  0.33333300  0.61539200  1
  Zn  Zn17  1  0.66666700  0.33333300  0.15383200  1
  Zn  Zn18  1  0.66666700  0.33333300  0.03845500  1
  Zn  Zn19  1  0.00000000  0.00000000  0.57690800  1
  Zn  Zn20  1  0.66666700  0.33333300  0.53843500  1
  Zn  Zn21  1  0.33333300  0.66666700  0.23073900  1
  Zn  Zn22  1  0.33333300  0.66666700  0.50001200  1
  Zn  Zn23  1  0.00000000  0.00000000  0.19229200  1
  Zn  Zn24  1  0.33333300  0.66666700  0.42304600  1
  Zn  Zn25  1  0.00000000  0.00000000  0.76975100  1
  S  S26  1  0.33333300  0.66666700  0.02887400  1
  S  S27  1  0.33333300  0.66666700  0.75999500  1
  S  S28  1  0.33333300  0.66666700  0.45189800  1
  S  S29  1  0.66666700  0.33333300  0.64424200  1
  S  S30  1  0.66666700  0.33333300  0.79689700  1
  S  S31  1  0.00000000  0.00000000  0.22115600  1
  S  S32  1  0.00000000  0.00000000  0.72121900  1
  S  S33  1  0.66666700  0.33333300  0.06731900  1
  S  S34  1  0.00000000  0.00000000  0.10578200  1
  S  S35  1  0.00000000  0.00000000  0.37501500  1
  S  S36  1  0.33333300  0.66666700  0.68266800  1
  S  S37  1  0.00000000  0.00000000  0.99042800  1
  S  S38  1  0.66666700  0.33333300  0.29811400  1
  S  S39  1  0.33333300  0.66666700  0.14424300  1
  S  S40  1  0.66666700  0.33333300  0.18270000  1
  S  S41  1  0.00000000  0.00000000  0.87502600  1
  S  S42  1  0.33333300  0.66666700  0.33655700  1
  S  S43  1  0.33333300  0.66666700  0.83658900  1
  S  S44  1  0.66666700  0.33333300  0.41346400  1
  S  S45  1  0.33333300  0.66666700  0.52886600  1
  S  S46  1  0.33333300  0.66666700  0.95189900  1
  S  S47  1  0.66666700  0.33333300  0.56728100  1
  S  S48  1  0.66666700  0.33333300  0.91346600  1
  S  S49  1  0.00000000  0.00000000  0.49042800  1
  S  S50  1  0.33333300  0.66666700  0.25959100  1
  S  S51  1  0.00000000  0.00000000  0.60581100  1
