# generated using pymatgen
data_PrSClO4
_symmetry_space_group_name_H-M   'P 1'
_cell_length_a   8.14617400
_cell_length_b   6.76942400
_cell_length_c   8.68660357
_cell_angle_alpha   66.07697905
_cell_angle_beta   90.00000000
_cell_angle_gamma   90.00000000
_symmetry_Int_Tables_number   1
_chemical_formula_structural   PrSClO4
_chemical_formula_sum   'Pr4 S4 Cl4 O16'
_cell_volume   437.86968721
_cell_formula_units_Z   4
loop_
 _symmetry_equiv_pos_site_id
 _symmetry_equiv_pos_as_xyz
  1  'x, y, z'
loop_
 _atom_site_type_symbol
 _atom_site_label
 _atom_site_symmetry_multiplicity
 _atom_site_fract_x
 _atom_site_fract_y
 _atom_site_fract_z
 _atom_site_occupancy
  Pr  Pr0  1  0.30796500  0.38230900  0.72929900  1
  Pr  Pr1  1  0.69203500  0.61769100  0.27070100  1
  Pr  Pr2  1  0.19203500  0.38230900  0.22929900  1
  Pr  Pr3  1  0.80796500  0.61769100  0.77070100  1
  S  S4  1  0.58121000  0.22287100  0.06787800  1
  S  S5  1  0.41879000  0.77712900  0.93212200  1
  S  S6  1  0.08121000  0.77712900  0.43212200  1
  S  S7  1  0.91879000  0.22287100  0.56787800  1
  Cl  Cl8  1  0.46321300  0.27347200  0.46972400  1
  Cl  Cl9  1  0.03678700  0.27347200  0.96972400  1
  Cl  Cl10  1  0.96321300  0.72652800  0.03027600  1
  Cl  Cl11  1  0.53678700  0.72652800  0.53027600  1
  O  O12  1  0.15109000  0.99491800  0.37091300  1
  O  O13  1  0.68306700  0.36547600  0.12219700  1
  O  O14  1  0.84891000  0.00508200  0.62908700  1
  O  O15  1  0.91363900  0.32622300  0.37625600  1
  O  O16  1  0.09296800  0.21635600  0.61849200  1
  O  O17  1  0.81693300  0.36547600  0.62219700  1
  O  O18  1  0.58636100  0.32622300  0.87625600  1
  O  O19  1  0.18306700  0.63452400  0.37780300  1
  O  O20  1  0.34891000  0.99491800  0.87091300  1
  O  O21  1  0.40703200  0.21635600  0.11849200  1
  O  O22  1  0.59296800  0.78364400  0.88150800  1
  O  O23  1  0.65109000  0.00508200  0.12908700  1
  O  O24  1  0.08636100  0.67377700  0.62374400  1
  O  O25  1  0.31693300  0.63452400  0.87780300  1
  O  O26  1  0.41363900  0.67377700  0.12374400  1
  O  O27  1  0.90703200  0.78364400  0.38150800  1
