# generated using pymatgen
data_CuHgSBr
_symmetry_space_group_name_H-M   'P 1'
_cell_length_a   4.11045500
_cell_length_b   9.57892900
_cell_length_c   10.10252600
_cell_angle_alpha   90.00000000
_cell_angle_beta   90.00000000
_cell_angle_gamma   90.00000000
_symmetry_Int_Tables_number   1
_chemical_formula_structural   CuHgSBr
_chemical_formula_sum   'Cu4 Hg4 S4 Br4'
_cell_volume   397.77439980
_cell_formula_units_Z   4
loop_
 _symmetry_equiv_pos_site_id
 _symmetry_equiv_pos_as_xyz
  1  'x, y, z'
loop_
 _atom_site_type_symbol
 _atom_site_label
 _atom_site_symmetry_multiplicity
 _atom_site_fract_x
 _atom_site_fract_y
 _atom_site_fract_z
 _atom_site_occupancy
  Cu  Cu0  1  0.00000000  0.20736300  0.07631300  1
  Cu  Cu1  1  0.00000000  0.20736300  0.42368700  1
  Cu  Cu2  1  0.00000000  0.79263700  0.57631300  1
  Cu  Cu3  1  0.00000000  0.79263700  0.92368700  1
  Hg  Hg4  1  0.50000000  0.77989800  0.25000000  1
  Hg  Hg5  1  0.50000000  0.22010200  0.75000000  1
  Hg  Hg6  1  0.50000000  0.50000000  0.50000000  1
  Hg  Hg7  1  0.50000000  0.50000000  0.00000000  1
  S  S8  1  0.50000000  0.24538300  0.99085500  1
  S  S9  1  0.50000000  0.24538300  0.50914500  1
  S  S10  1  0.50000000  0.75461700  0.00914500  1
  S  S11  1  0.50000000  0.75461700  0.49085500  1
  Br  Br12  1  0.00000000  0.55043100  0.75000000  1
  Br  Br13  1  0.00000000  0.44956900  0.25000000  1
  Br  Br14  1  0.00000000  0.97198500  0.75000000  1
  Br  Br15  1  0.00000000  0.02801500  0.25000000  1
