# generated using pymatgen
data_ZnS
_symmetry_space_group_name_H-M   'P 1'
_cell_length_a   3.85406458
_cell_length_b   3.85406458
_cell_length_c   81.90264400
_cell_angle_alpha   90.00000000
_cell_angle_beta   90.00000000
_cell_angle_gamma   120.00000993
_symmetry_Int_Tables_number   1
_chemical_formula_structural   ZnS
_chemical_formula_sum   'Zn26 S26'
_cell_volume   1053.57749440
_cell_formula_units_Z   26
loop_
 _symmetry_equiv_pos_site_id
 _symmetry_equiv_pos_as_xyz
  1  'x, y, z'
loop_
 _atom_site_type_symbol
 _atom_site_label
 _atom_site_symmetry_multiplicity
 _atom_site_fract_x
 _atom_site_fract_y
 _atom_site_fract_z
 _atom_site_occupancy
  Zn  Zn0  1  0.33333300  0.66666700  0.80767500  1
  Zn  Zn1  1  0.00000000  0.00000000  0.11539100  1
  Zn  Zn2  1  0.66666700  0.33333300  0.46155700  1
  Zn  Zn3  1  0.33333300  0.66666700  0.65384700  1
  Zn  Zn4  1  0.00000000  0.00000000  0.23077600  1
  Zn  Zn5  1  0.66666700  0.33333300  0.96153900  1
  Zn  Zn6  1  0.33333300  0.66666700  0.88464300  1
  Zn  Zn7  1  0.33333300  0.66666700  0.03847200  1
  Zn  Zn8  1  0.66666700  0.33333300  0.19229200  1
  Zn  Zn9  1  0.66666700  0.33333300  0.07692700  1
  Zn  Zn10  1  0.00000000  0.00000000  0.76925500  1
  Zn  Zn11  1  0.00000000  0.00000000  0.69229200  1
  Zn  Zn12  1  0.33333300  0.66666700  0.42308100  1
  Zn  Zn13  1  0.66666700  0.33333300  0.84615900  1
  Zn  Zn14  1  0.00000000  0.00000000  0.57695200  1
  Zn  Zn15  1  0.33333300  0.66666700  0.53846800  1
  Zn  Zn16  1  0.00000000  0.00000000  0.00003500  1
  Zn  Zn17  1  0.33333300  0.66666700  0.30769900  1
  Zn  Zn18  1  0.33333300  0.66666700  0.15384700  1
  Zn  Zn19  1  0.66666700  0.33333300  0.26925900  1
  Zn  Zn20  1  0.00000000  0.00000000  0.92306400  1
  Zn  Zn21  1  0.66666700  0.33333300  0.61539400  1
  Zn  Zn22  1  0.00000000  0.00000000  0.49998700  1
  Zn  Zn23  1  0.66666700  0.33333300  0.38460000  1
  Zn  Zn24  1  0.00000000  0.00000000  0.34616000  1
  Zn  Zn25  1  0.66666700  0.33333300  0.73077400  1
  S  S26  1  0.66666700  0.33333300  0.75964500  1
  S  S27  1  0.00000000  0.00000000  0.02886100  1
  S  S28  1  0.00000000  0.00000000  0.72111400  1
  S  S29  1  0.00000000  0.00000000  0.79806400  1
  S  S30  1  0.33333300  0.66666700  0.33653500  1
  S  S31  1  0.66666700  0.33333300  0.22111400  1
  S  S32  1  0.33333300  0.66666700  0.83649400  1
  S  S33  1  0.33333300  0.66666700  0.06729800  1
  S  S34  1  0.33333300  0.66666700  0.91345800  1
  S  S35  1  0.33333300  0.66666700  0.45194700  1
  S  S36  1  0.66666700  0.33333300  0.10576600  1
  S  S37  1  0.66666700  0.33333300  0.87503100  1
  S  S38  1  0.66666700  0.33333300  0.29807400  1
  S  S39  1  0.00000000  0.00000000  0.60577600  1
  S  S40  1  0.00000000  0.00000000  0.95188000  1
  S  S41  1  0.66666700  0.33333300  0.49037300  1
  S  S42  1  0.33333300  0.66666700  0.68267800  1
  S  S43  1  0.00000000  0.00000000  0.37499100  1
  S  S44  1  0.33333300  0.66666700  0.18267800  1
  S  S45  1  0.66666700  0.33333300  0.99041300  1
  S  S46  1  0.00000000  0.00000000  0.25964700  1
  S  S47  1  0.66666700  0.33333300  0.41342100  1
  S  S48  1  0.00000000  0.00000000  0.14422700  1
  S  S49  1  0.00000000  0.00000000  0.52880900  1
  S  S50  1  0.33333300  0.66666700  0.56733500  1
  S  S51  1  0.66666700  0.33333300  0.64422900  1
