# generated using pymatgen
data_CsFeF3
_symmetry_space_group_name_H-M   'P 1'
_cell_length_a   6.30087318
_cell_length_b   6.30087318
_cell_length_c   14.84748200
_cell_angle_alpha   90.00000000
_cell_angle_beta   90.00000000
_cell_angle_gamma   119.99999136
_symmetry_Int_Tables_number   1
_chemical_formula_structural   CsFeF3
_chemical_formula_sum   'Cs6 Fe6 F18'
_cell_volume   510.48731347
_cell_formula_units_Z   6
loop_
 _symmetry_equiv_pos_site_id
 _symmetry_equiv_pos_as_xyz
  1  'x, y, z'
loop_
 _atom_site_type_symbol
 _atom_site_label
 _atom_site_symmetry_multiplicity
 _atom_site_fract_x
 _atom_site_fract_y
 _atom_site_fract_z
 _atom_site_occupancy
  Cs  Cs0  1  0.00000000  0.00000000  0.25000000  1
  Cs  Cs1  1  0.00000000  0.00000000  0.75000000  1
  Cs  Cs2  1  0.33333300  0.66666700  0.09535500  1
  Cs  Cs3  1  0.66666700  0.33333300  0.59535500  1
  Cs  Cs4  1  0.66666700  0.33333300  0.90464500  1
  Cs  Cs5  1  0.33333300  0.66666700  0.40464500  1
  Fe  Fe6  1  0.00000000  0.00000000  0.00000000  1
  Fe  Fe7  1  0.33333300  0.66666700  0.65296400  1
  Fe  Fe8  1  0.66666700  0.33333300  0.15296400  1
  Fe  Fe9  1  0.66666700  0.33333300  0.34703600  1
  Fe  Fe10  1  0.33333300  0.66666700  0.84703600  1
  Fe  Fe11  1  0.00000000  0.00000000  0.50000000  1
  F  F12  1  0.33191600  0.16595800  0.07892800  1
  F  F13  1  0.83404200  0.16595800  0.42107200  1
  F  F14  1  0.83404200  0.66808400  0.42107200  1
  F  F15  1  0.33191600  0.16595800  0.42107200  1
  F  F16  1  0.66808400  0.83404200  0.92107200  1
  F  F17  1  0.16595800  0.33191600  0.57892800  1
  F  F18  1  0.52208800  0.04417600  0.25000000  1
  F  F19  1  0.47791200  0.52208800  0.75000000  1
  F  F20  1  0.04417600  0.52208800  0.75000000  1
  F  F21  1  0.95582400  0.47791200  0.25000000  1
  F  F22  1  0.52208800  0.47791200  0.25000000  1
  F  F23  1  0.47791200  0.95582400  0.75000000  1
  F  F24  1  0.83404200  0.66808400  0.07892800  1
  F  F25  1  0.16595800  0.83404200  0.57892800  1
  F  F26  1  0.66808400  0.83404200  0.57892800  1
  F  F27  1  0.16595800  0.33191600  0.92107200  1
  F  F28  1  0.83404200  0.16595800  0.07892800  1
  F  F29  1  0.16595800  0.83404200  0.92107200  1
