# generated using pymatgen
data_Rb3NbH4(C2O5)3
_symmetry_space_group_name_H-M   'P 1'
_cell_length_a   8.09320900
_cell_length_b   9.16038483
_cell_length_c   11.69911208
_cell_angle_alpha   78.93749421
_cell_angle_beta   86.99724002
_cell_angle_gamma   86.42038867
_symmetry_Int_Tables_number   1
_chemical_formula_structural   Rb3NbH4(C2O5)3
_chemical_formula_sum   'Rb6 Nb2 H8 C12 O30'
_cell_volume   848.83575254
_cell_formula_units_Z   2
loop_
 _symmetry_equiv_pos_site_id
 _symmetry_equiv_pos_as_xyz
  1  'x, y, z'
loop_
 _atom_site_type_symbol
 _atom_site_label
 _atom_site_symmetry_multiplicity
 _atom_site_fract_x
 _atom_site_fract_y
 _atom_site_fract_z
 _atom_site_occupancy
  Rb  Rb0  1  0.37912900  0.03491000  0.14971500  1
  Rb  Rb1  1  0.85444400  0.67063400  0.57195500  1
  Rb  Rb2  1  0.98533700  0.75937800  0.13121400  1
  Rb  Rb3  1  0.62087100  0.96509000  0.85028500  1
  Rb  Rb4  1  0.01466300  0.24062200  0.86878600  1
  Rb  Rb5  1  0.14555600  0.32936600  0.42804500  1
  Nb  Nb6  1  0.67772000  0.37417500  0.33234600  1
  Nb  Nb7  1  0.32228000  0.62582500  0.66765400  1
  H  H8  1  0.83378500  0.58830400  0.90737400  1
  H  H9  1  0.03683600  0.05575400  0.63133900  1
  H  H10  1  0.74239400  0.49919800  0.01404400  1
  H  H11  1  0.16621500  0.41169600  0.09262600  1
  H  H12  1  0.96316400  0.94424600  0.36866100  1
  H  H13  1  0.22114400  0.09635400  0.64670300  1
  H  H14  1  0.77885600  0.90364600  0.35329700  1
  H  H15  1  0.25760600  0.50080200  0.98595600  1
  C  C16  1  0.54944700  0.15186400  0.54018400  1
  C  C17  1  0.73467100  0.10328600  0.52808000  1
  C  C18  1  0.57697700  0.37822300  0.75378000  1
  C  C19  1  0.26532900  0.89671400  0.47192000  1
  C  C20  1  0.45055300  0.84813600  0.45981600  1
  C  C21  1  0.57203000  0.65378000  0.15884300  1
  C  C22  1  0.07055100  0.75226800  0.83117500  1
  C  C23  1  0.42797000  0.34622000  0.84115700  1
  C  C24  1  0.76505500  0.17998100  0.14634100  1
  C  C25  1  0.23494500  0.82001900  0.85365900  1
  C  C26  1  0.42302300  0.62177700  0.24622000  1
  C  C27  1  0.92944900  0.24773200  0.16882500  1
  O  O28  1  0.10374300  0.12658800  0.65914600  1
  O  O29  1  0.41923500  0.22875100  0.91304700  1
  O  O30  1  0.35995300  0.77716700  0.79180900  1
  O  O31  1  0.78842600  0.49034200  0.93632000  1
  O  O32  1  0.54374100  0.91135400  0.38090800  1
  O  O33  1  0.08544400  0.66125400  0.75888200  1
  O  O34  1  0.23758500  0.90378600  0.92522900  1
  O  O35  1  0.30189200  0.70999200  0.24815700  1
  O  O36  1  0.69810800  0.29000800  0.75184300  1
  O  O37  1  0.21965900  0.51273600  0.59111700  1
  O  O38  1  0.58076500  0.77124900  0.08695300  1
  O  O39  1  0.31425100  0.45537700  0.82876000  1
  O  O40  1  0.91455600  0.33874600  0.24111800  1
  O  O41  1  0.93706300  0.78281500  0.88184400  1
  O  O42  1  0.49532400  0.73672800  0.54133800  1
  O  O43  1  0.55731700  0.50665300  0.68311900  1
  O  O44  1  0.80744700  0.17863300  0.43598600  1
  O  O45  1  0.50467600  0.26327200  0.45866200  1
  O  O46  1  0.19255300  0.82136700  0.56401400  1
  O  O47  1  0.45625900  0.08864600  0.61909200  1
  O  O48  1  0.78034100  0.48726400  0.40888300  1
  O  O49  1  0.19939400  0.99827900  0.40005700  1
  O  O50  1  0.21157400  0.50965800  0.06368000  1
  O  O51  1  0.76241500  0.09621400  0.07477100  1
  O  O52  1  0.89625700  0.87341200  0.34085400  1
  O  O53  1  0.68574900  0.54462300  0.17124000  1
  O  O54  1  0.44268300  0.49334700  0.31688100  1
  O  O55  1  0.06293700  0.21718500  0.11815600  1
  O  O56  1  0.80060600  0.00172100  0.59994300  1
  O  O57  1  0.64004700  0.22283300  0.20819100  1
