# generated using pymatgen
data_PNF2
_symmetry_space_group_name_H-M   'P 1'
_cell_length_a   15.56126100
_cell_length_b   5.09691700
_cell_length_c   16.26488312
_cell_angle_alpha   81.71386484
_cell_angle_beta   90.00000000
_cell_angle_gamma   90.00000000
_symmetry_Int_Tables_number   1
_chemical_formula_structural   PNF2
_chemical_formula_sum   'P20 N20 F40'
_cell_volume   1276.57322400
_cell_formula_units_Z   20
loop_
 _symmetry_equiv_pos_site_id
 _symmetry_equiv_pos_as_xyz
  1  'x, y, z'
loop_
 _atom_site_type_symbol
 _atom_site_label
 _atom_site_symmetry_multiplicity
 _atom_site_fract_x
 _atom_site_fract_y
 _atom_site_fract_z
 _atom_site_occupancy
  P  P0  1  0.33716800  0.18498800  0.00872100  1
  P  P1  1  0.66283200  0.81501200  0.99127900  1
  P  P2  1  0.65336100  0.99157800  0.47224000  1
  P  P3  1  0.83716800  0.81501200  0.49127900  1
  P  P4  1  0.60855600  0.66689400  0.63002000  1
  P  P5  1  0.84663900  0.99157800  0.97224000  1
  P  P6  1  0.39144400  0.33310600  0.36998000  1
  P  P7  1  0.59082900  0.69240300  0.15788800  1
  P  P8  1  0.25709900  0.58919000  0.77826100  1
  P  P9  1  0.15336100  0.00842200  0.02776000  1
  P  P10  1  0.74290100  0.41081000  0.22173900  1
  P  P11  1  0.16283200  0.18498800  0.50872100  1
  P  P12  1  0.40917100  0.30759700  0.84211200  1
  P  P13  1  0.89144400  0.66689400  0.13002000  1
  P  P14  1  0.10855600  0.33310600  0.86998000  1
  P  P15  1  0.24290100  0.58919000  0.27826100  1
  P  P16  1  0.90917100  0.69240300  0.65788800  1
  P  P17  1  0.75709900  0.41081000  0.72173900  1
  P  P18  1  0.09082900  0.30759700  0.34211200  1
  P  P19  1  0.34663900  0.00842200  0.52776000  1
  N  N20  1  0.69564600  0.51819100  0.64881900  1
  N  N21  1  0.12989200  0.13941100  0.42120000  1
  N  N22  1  0.24939700  0.07101300  0.04126500  1
  N  N23  1  0.14608500  0.51033200  0.28276600  1
  N  N24  1  0.74939700  0.92898700  0.45873500  1
  N  N25  1  0.62989200  0.86058900  0.07880000  1
  N  N26  1  0.80435400  0.51819100  0.14881900  1
  N  N27  1  0.40005000  0.12989200  0.45050000  1
  N  N28  1  0.90005000  0.87010800  0.04950000  1
  N  N29  1  0.30435400  0.48180900  0.35118100  1
  N  N30  1  0.75060300  0.92898700  0.95873500  1
  N  N31  1  0.19564600  0.48180900  0.85118100  1
  N  N32  1  0.87010800  0.86058900  0.57880000  1
  N  N33  1  0.59995000  0.87010800  0.54950000  1
  N  N34  1  0.35391500  0.51033200  0.78276600  1
  N  N35  1  0.37010800  0.13941100  0.92120000  1
  N  N36  1  0.64608500  0.48966800  0.21723400  1
  N  N37  1  0.09995000  0.12989200  0.95050000  1
  N  N38  1  0.85391500  0.48966800  0.71723400  1
  N  N39  1  0.25060300  0.07101300  0.54126500  1
  F  F40  1  0.65708800  0.51360000  0.98129200  1
  F  F41  1  0.03388300  0.53797300  0.86929400  1
  F  F42  1  0.14244600  0.70033300  0.03674000  1
  F  F43  1  0.85755400  0.29966700  0.96326000  1
  F  F44  1  0.00814100  0.45856000  0.36371100  1
  F  F45  1  0.54965700  0.89133800  0.21037300  1
  F  F46  1  0.09455300  0.07237900  0.57498000  1
  F  F47  1  0.50814100  0.54144000  0.13628900  1
  F  F48  1  0.35755400  0.70033300  0.53674000  1
  F  F49  1  0.34291200  0.48640000  0.01870800  1
  F  F50  1  0.40544700  0.07237900  0.07498000  1
  F  F51  1  0.60358400  0.94136100  0.39282000  1
  F  F52  1  0.04965700  0.10866200  0.28962700  1
  F  F53  1  0.95034300  0.89133800  0.71037300  1
  F  F54  1  0.42003300  0.19470700  0.29468300  1
  F  F55  1  0.90544700  0.92762100  0.42502000  1
  F  F56  1  0.49185900  0.45856000  0.86371100  1
  F  F57  1  0.72017700  0.46295400  0.80737400  1
  F  F58  1  0.57996700  0.80529300  0.70531700  1
  F  F59  1  0.22017700  0.53704600  0.69262600  1
  F  F60  1  0.96611700  0.46202700  0.13070600  1
  F  F61  1  0.45034300  0.10866200  0.78962700  1
  F  F62  1  0.77982300  0.46295400  0.30737400  1
  F  F63  1  0.64244600  0.29966700  0.46326000  1
  F  F64  1  0.39641600  0.05863900  0.60718000  1
  F  F65  1  0.89641600  0.94136100  0.89282000  1
  F  F66  1  0.53388300  0.46202700  0.63070600  1
  F  F67  1  0.07996700  0.19470700  0.79468300  1
  F  F68  1  0.46611700  0.53797300  0.36929400  1
  F  F69  1  0.24683100  0.89951000  0.26438900  1
  F  F70  1  0.75316900  0.10049000  0.73561100  1
  F  F71  1  0.59455300  0.92762100  0.92502000  1
  F  F72  1  0.99185900  0.54144000  0.63628900  1
  F  F73  1  0.27982300  0.53704600  0.19262600  1
  F  F74  1  0.25316900  0.89951000  0.76438900  1
  F  F75  1  0.15708800  0.48640000  0.51870800  1
  F  F76  1  0.92003300  0.80529300  0.20531700  1
  F  F77  1  0.84291200  0.51360000  0.48129200  1
  F  F78  1  0.74683100  0.10049000  0.23561100  1
  F  F79  1  0.10358400  0.05863900  0.10718000  1
