# generated using pymatgen
data_Ba3AlF9
_symmetry_space_group_name_H-M   'P 1'
_cell_length_a   7.65854000
_cell_length_b   14.79851500
_cell_length_c   15.10369800
_cell_angle_alpha   90.00000000
_cell_angle_beta   90.00000000
_cell_angle_gamma   90.00000000
_symmetry_Int_Tables_number   1
_chemical_formula_structural   Ba3AlF9
_chemical_formula_sum   'Ba24 Al8 F72'
_cell_volume   1711.77790083
_cell_formula_units_Z   8
loop_
 _symmetry_equiv_pos_site_id
 _symmetry_equiv_pos_as_xyz
  1  'x, y, z'
loop_
 _atom_site_type_symbol
 _atom_site_label
 _atom_site_symmetry_multiplicity
 _atom_site_fract_x
 _atom_site_fract_y
 _atom_site_fract_z
 _atom_site_occupancy
  Ba  Ba0  1  0.74192100  0.40178900  0.10847000  1
  Ba  Ba1  1  0.00000000  0.85618000  0.00000000  1
  Ba  Ba2  1  0.24159900  0.19817900  0.68863000  1
  Ba  Ba3  1  0.24159900  0.69817900  0.81137000  1
  Ba  Ba4  1  0.74960100  0.28133700  0.77305000  1
  Ba  Ba5  1  0.49245800  0.00425400  0.14541300  1
  Ba  Ba6  1  0.25039900  0.28133700  0.22695000  1
  Ba  Ba7  1  0.25807900  0.40178900  0.89153000  1
  Ba  Ba8  1  0.50754200  0.00425400  0.85458700  1
  Ba  Ba9  1  0.50754200  0.50425400  0.64541300  1
  Ba  Ba10  1  0.49245800  0.50425400  0.35458700  1
  Ba  Ba11  1  0.77223100  0.06948500  0.59508200  1
  Ba  Ba12  1  0.00000000  0.17737000  0.00000000  1
  Ba  Ba13  1  0.22776900  0.06948500  0.40491800  1
  Ba  Ba14  1  0.00000000  0.67737000  0.50000000  1
  Ba  Ba15  1  0.77223100  0.56948500  0.90491800  1
  Ba  Ba16  1  0.75840100  0.69817900  0.18863000  1
  Ba  Ba17  1  0.00000000  0.35618000  0.50000000  1
  Ba  Ba18  1  0.25039900  0.78133700  0.27305000  1
  Ba  Ba19  1  0.75840100  0.19817900  0.31137000  1
  Ba  Ba20  1  0.25807900  0.90178900  0.60847000  1
  Ba  Ba21  1  0.74960100  0.78133700  0.72695000  1
  Ba  Ba22  1  0.22776900  0.56948500  0.09508200  1
  Ba  Ba23  1  0.74192100  0.90178900  0.39153000  1
  Al  Al24  1  0.50000000  0.81060300  0.00000000  1
  Al  Al25  1  0.50000000  0.20488300  0.00000000  1
  Al  Al26  1  0.98322500  0.48408200  0.30097400  1
  Al  Al27  1  0.50000000  0.70488300  0.50000000  1
  Al  Al28  1  0.01677500  0.98408200  0.80097400  1
  Al  Al29  1  0.01677500  0.48408200  0.69902600  1
  Al  Al30  1  0.98322500  0.98408200  0.19902600  1
  Al  Al31  1  0.50000000  0.31060300  0.50000000  1
  F  F32  1  0.66987100  0.28676700  0.97173800  1
  F  F33  1  0.50000000  0.49294700  0.00000000  1
  F  F34  1  0.93493100  0.25130800  0.15902800  1
  F  F35  1  0.43481200  0.20744400  0.88285900  1
  F  F36  1  0.21805800  0.53371600  0.74423200  1
  F  F37  1  0.65887300  0.90327200  0.00825900  1
  F  F38  1  0.15073300  0.87996100  0.81571500  1
  F  F39  1  0.67276400  0.22773200  0.48839400  1
  F  F40  1  0.34112700  0.40327200  0.50825900  1
  F  F41  1  0.56518800  0.70744400  0.38285900  1
  F  F42  1  0.34013900  0.11483300  0.02365700  1
  F  F43  1  0.66987100  0.78676700  0.52826200  1
  F  F44  1  0.33012900  0.28676700  0.02826200  1
  F  F45  1  0.13888200  0.56754700  0.92590100  1
  F  F46  1  0.33012900  0.78676700  0.47173800  1
  F  F47  1  0.92487900  0.22817500  0.62953700  1
  F  F48  1  0.44700800  0.92362700  0.30024900  1
  F  F49  1  0.07512100  0.72817500  0.12953700  1
  F  F50  1  0.07650700  0.52046100  0.58891700  1
  F  F51  1  0.50000000  0.99294700  0.50000000  1
  F  F52  1  0.93493100  0.75130800  0.34097200  1
  F  F53  1  0.34013900  0.61483300  0.47634300  1
  F  F54  1  0.65986100  0.11483300  0.97634300  1
  F  F55  1  0.00000000  0.37774900  0.00000000  1
  F  F56  1  0.06506900  0.25130800  0.84097200  1
  F  F57  1  0.10832100  0.08577800  0.21953800  1
  F  F58  1  0.65887300  0.40327200  0.49174100  1
  F  F59  1  0.51833900  0.31260200  0.62326800  1
  F  F60  1  0.04781100  0.44210900  0.19118900  1
  F  F61  1  0.00000000  0.87774900  0.50000000  1
  F  F62  1  0.92349300  0.52046100  0.41108300  1
  F  F63  1  0.43481200  0.70744400  0.61714100  1
  F  F64  1  0.56518800  0.20744400  0.11714100  1
  F  F65  1  0.89167900  0.08577800  0.78046200  1
  F  F66  1  0.95218900  0.94210900  0.69118900  1
  F  F67  1  0.84926700  0.37996100  0.31571500  1
  F  F68  1  0.07650700  0.02046100  0.91108300  1
  F  F69  1  0.92487900  0.72817500  0.87046300  1
  F  F70  1  0.78194200  0.03371600  0.24423200  1
  F  F71  1  0.92349300  0.02046100  0.08891700  1
  F  F72  1  0.48166100  0.31260200  0.37673200  1
  F  F73  1  0.84926700  0.87996100  0.18428500  1
  F  F74  1  0.17137600  0.92424300  0.15408100  1
  F  F75  1  0.51833900  0.81260200  0.87673200  1
  F  F76  1  0.07512100  0.22817500  0.37046300  1
  F  F77  1  0.44189000  0.13588300  0.28221700  1
  F  F78  1  0.34112700  0.90327200  0.99174100  1
  F  F79  1  0.17137600  0.42424300  0.34591900  1
  F  F80  1  0.55811000  0.13588300  0.71778300  1
  F  F81  1  0.32723600  0.22773200  0.51160600  1
  F  F82  1  0.82862400  0.42424300  0.65408100  1
  F  F83  1  0.86111800  0.06754700  0.42590100  1
  F  F84  1  0.32723600  0.72773200  0.98839400  1
  F  F85  1  0.55811000  0.63588300  0.78221700  1
  F  F86  1  0.10832100  0.58577800  0.28046200  1
  F  F87  1  0.55299200  0.42362700  0.80024900  1
  F  F88  1  0.44700800  0.42362700  0.19975100  1
  F  F89  1  0.15073300  0.37996100  0.68428500  1
  F  F90  1  0.21805800  0.03371600  0.75576800  1
  F  F91  1  0.95218900  0.44210900  0.80881100  1
  F  F92  1  0.13888200  0.06754700  0.57409900  1
  F  F93  1  0.82862400  0.92424300  0.84591900  1
  F  F94  1  0.65986100  0.61483300  0.52365700  1
  F  F95  1  0.06506900  0.75130800  0.65902800  1
  F  F96  1  0.04781100  0.94210900  0.30881100  1
  F  F97  1  0.78194200  0.53371600  0.25576800  1
  F  F98  1  0.67276400  0.72773200  0.01160600  1
  F  F99  1  0.89167900  0.58577800  0.71953800  1
  F  F100  1  0.48166100  0.81260200  0.12326800  1
  F  F101  1  0.55299200  0.92362700  0.69975100  1
  F  F102  1  0.86111800  0.56754700  0.07409900  1
  F  F103  1  0.44189000  0.63588300  0.21778300  1
