# generated using pymatgen
data_NaYbCO3F2
_symmetry_space_group_name_H-M   'P 1'
_cell_length_a   6.71526900
_cell_length_b   6.82547400
_cell_length_c   9.42216400
_cell_angle_alpha   90.00000000
_cell_angle_beta   90.00000000
_cell_angle_gamma   90.00000000
_symmetry_Int_Tables_number   1
_chemical_formula_structural   NaYbCO3F2
_chemical_formula_sum   'Na4 Yb4 C4 O12 F8'
_cell_volume   431.86388784
_cell_formula_units_Z   4
loop_
 _symmetry_equiv_pos_site_id
 _symmetry_equiv_pos_as_xyz
  1  'x, y, z'
loop_
 _atom_site_type_symbol
 _atom_site_label
 _atom_site_symmetry_multiplicity
 _atom_site_fract_x
 _atom_site_fract_y
 _atom_site_fract_z
 _atom_site_occupancy
  Na  Na0  1  0.18552900  0.25000000  0.22912100  1
  Na  Na1  1  0.68552900  0.25000000  0.27087900  1
  Na  Na2  1  0.81447100  0.75000000  0.77087900  1
  Na  Na3  1  0.31447100  0.75000000  0.72912100  1
  Yb  Yb4  1  0.50570200  0.75000000  0.06111200  1
  Yb  Yb5  1  0.00570200  0.75000000  0.43888800  1
  Yb  Yb6  1  0.99429800  0.25000000  0.56111200  1
  Yb  Yb7  1  0.49429800  0.25000000  0.93888800  1
  C  C8  1  0.54369900  0.75000000  0.43684300  1
  C  C9  1  0.95630100  0.25000000  0.93684300  1
  C  C10  1  0.04369900  0.75000000  0.06315700  1
  C  C11  1  0.45630100  0.25000000  0.56315700  1
  O  O12  1  0.15860700  0.75000000  0.95489600  1
  O  O13  1  0.14484300  0.25000000  0.95326300  1
  O  O14  1  0.64484300  0.25000000  0.54673700  1
  O  O15  1  0.35515700  0.75000000  0.45326300  1
  O  O16  1  0.34139300  0.25000000  0.45489600  1
  O  O17  1  0.37905000  0.25000000  0.68686500  1
  O  O18  1  0.85515700  0.75000000  0.04673700  1
  O  O19  1  0.87905000  0.25000000  0.81313500  1
  O  O20  1  0.12095000  0.75000000  0.18686500  1
  O  O21  1  0.84139300  0.25000000  0.04510400  1
  O  O22  1  0.65860700  0.75000000  0.54510400  1
  O  O23  1  0.62095000  0.75000000  0.31313500  1
  F  F24  1  0.04709000  0.94336600  0.63361300  1
  F  F25  1  0.54709000  0.55663400  0.86638700  1
  F  F26  1  0.04709000  0.55663400  0.63361300  1
  F  F27  1  0.45291000  0.44336600  0.13361300  1
  F  F28  1  0.54709000  0.94336600  0.86638700  1
  F  F29  1  0.95291000  0.44336600  0.36638700  1
  F  F30  1  0.45291000  0.05663400  0.13361300  1
  F  F31  1  0.95291000  0.05663400  0.36638700  1
