# generated using pymatgen
data_MgAlPO5
_symmetry_space_group_name_H-M   'P 1'
_cell_length_a   10.47514400
_cell_length_b   5.31395000
_cell_length_c   7.19392719
_cell_angle_alpha   89.36329165
_cell_angle_beta   90.00000000
_cell_angle_gamma   90.00000000
_symmetry_Int_Tables_number   1
_chemical_formula_structural   MgAlPO5
_chemical_formula_sum   'Mg4 Al4 P4 O20'
_cell_volume   400.42085366
_cell_formula_units_Z   4
loop_
 _symmetry_equiv_pos_site_id
 _symmetry_equiv_pos_as_xyz
  1  'x, y, z'
loop_
 _atom_site_type_symbol
 _atom_site_label
 _atom_site_symmetry_multiplicity
 _atom_site_fract_x
 _atom_site_fract_y
 _atom_site_fract_z
 _atom_site_occupancy
  Mg  Mg0  1  0.14302200  0.09552900  0.97920400  1
  Mg  Mg1  1  0.85697800  0.90447100  0.02079600  1
  Mg  Mg2  1  0.35697800  0.59552900  0.97920400  1
  Mg  Mg3  1  0.64302200  0.40447100  0.02079600  1
  Al  Al4  1  0.17017900  0.66836500  0.64231200  1
  Al  Al5  1  0.32982100  0.16836500  0.64231200  1
  Al  Al6  1  0.67017900  0.83163500  0.35768800  1
  Al  Al7  1  0.82982100  0.33163500  0.35768800  1
  P  P8  1  0.90669700  0.41175700  0.77772800  1
  P  P9  1  0.09330300  0.58824300  0.22227200  1
  P  P10  1  0.59330300  0.91175700  0.77772800  1
  P  P11  1  0.40669700  0.08824300  0.22227200  1
  O  O12  1  0.21291500  0.96140000  0.73231700  1
  O  O13  1  0.28708500  0.46140000  0.73231700  1
  O  O14  1  0.03969200  0.82398700  0.12009800  1
  O  O15  1  0.66590500  0.83204700  0.60182500  1
  O  O16  1  0.01636000  0.59160200  0.72338800  1
  O  O17  1  0.81571900  0.55611000  0.90917200  1
  O  O18  1  0.46030800  0.32398700  0.12009800  1
  O  O19  1  0.71291500  0.53860000  0.26768300  1
  O  O20  1  0.78708500  0.03860000  0.26768300  1
  O  O21  1  0.53969200  0.67601300  0.87990200  1
  O  O22  1  0.31571900  0.94389000  0.09082800  1
  O  O23  1  0.16590500  0.66795300  0.39817500  1
  O  O24  1  0.68428100  0.05611000  0.90917200  1
  O  O25  1  0.48364000  0.09160200  0.72338800  1
  O  O26  1  0.96030800  0.17601300  0.87990200  1
  O  O27  1  0.98364000  0.40839800  0.27661200  1
  O  O28  1  0.51636000  0.90839800  0.27661200  1
  O  O29  1  0.83409500  0.33204700  0.60182500  1
  O  O30  1  0.33409500  0.16795300  0.39817500  1
  O  O31  1  0.18428100  0.44389000  0.09082800  1
