# generated using pymatgen
data_SiO2
_symmetry_space_group_name_H-M   'P 1'
_cell_length_a   9.90508200
_cell_length_b   9.90508200
_cell_length_c   8.47756400
_cell_angle_alpha   90.00000000
_cell_angle_beta   90.00000000
_cell_angle_gamma   90.00000000
_symmetry_Int_Tables_number   1
_chemical_formula_structural   SiO2
_chemical_formula_sum   'Si16 O32'
_cell_volume   831.73930960
_cell_formula_units_Z   16
loop_
 _symmetry_equiv_pos_site_id
 _symmetry_equiv_pos_as_xyz
  1  'x, y, z'
loop_
 _atom_site_type_symbol
 _atom_site_label
 _atom_site_symmetry_multiplicity
 _atom_site_fract_x
 _atom_site_fract_y
 _atom_site_fract_z
 _atom_site_occupancy
  Si  Si0  1  0.62083100  0.67043100  0.31270700  1
  Si  Si1  1  0.82956900  0.87916900  0.18729300  1
  Si  Si2  1  0.12083100  0.82956900  0.31270700  1
  Si  Si3  1  0.37916900  0.32956900  0.31270700  1
  Si  Si4  1  0.17043100  0.12083100  0.18729300  1
  Si  Si5  1  0.32956900  0.62083100  0.81270700  1
  Si  Si6  1  0.12083100  0.82956900  0.68729300  1
  Si  Si7  1  0.32956900  0.62083100  0.18729300  1
  Si  Si8  1  0.67043100  0.37916900  0.81270700  1
  Si  Si9  1  0.17043100  0.12083100  0.81270700  1
  Si  Si10  1  0.37916900  0.32956900  0.68729300  1
  Si  Si11  1  0.82956900  0.87916900  0.81270700  1
  Si  Si12  1  0.87916900  0.17043100  0.31270700  1
  Si  Si13  1  0.87916900  0.17043100  0.68729300  1
  Si  Si14  1  0.67043100  0.37916900  0.18729300  1
  Si  Si15  1  0.62083100  0.67043100  0.68729300  1
  O  O16  1  0.85346500  0.14992800  0.50000000  1
  O  O17  1  0.68275700  0.54126600  0.21799400  1
  O  O18  1  0.69303000  0.80697000  0.25000000  1
  O  O19  1  0.18275700  0.95873400  0.78200600  1
  O  O20  1  0.64992800  0.35346500  0.00000000  1
  O  O21  1  0.64653500  0.64992800  0.50000000  1
  O  O22  1  0.04126600  0.18275700  0.71799400  1
  O  O23  1  0.45873400  0.68275700  0.71799400  1
  O  O24  1  0.81724300  0.04126600  0.78200600  1
  O  O25  1  0.31724300  0.45873400  0.21799400  1
  O  O26  1  0.35007200  0.64653500  0.00000000  1
  O  O27  1  0.14653500  0.85007200  0.50000000  1
  O  O28  1  0.45873400  0.68275700  0.28200600  1
  O  O29  1  0.81724300  0.04126600  0.21799400  1
  O  O30  1  0.35346500  0.35007200  0.50000000  1
  O  O31  1  0.19303000  0.69303000  0.25000000  1
  O  O32  1  0.85007200  0.85346500  0.00000000  1
  O  O33  1  0.80697000  0.30697000  0.75000000  1
  O  O34  1  0.18275700  0.95873400  0.21799400  1
  O  O35  1  0.30697000  0.19303000  0.25000000  1
  O  O36  1  0.14992800  0.14653500  0.00000000  1
  O  O37  1  0.69303000  0.80697000  0.75000000  1
  O  O38  1  0.30697000  0.19303000  0.75000000  1
  O  O39  1  0.54126600  0.31724300  0.28200600  1
  O  O40  1  0.95873400  0.81724300  0.28200600  1
  O  O41  1  0.95873400  0.81724300  0.71799400  1
  O  O42  1  0.80697000  0.30697000  0.25000000  1
  O  O43  1  0.19303000  0.69303000  0.75000000  1
  O  O44  1  0.31724300  0.45873400  0.78200600  1
  O  O45  1  0.04126600  0.18275700  0.28200600  1
  O  O46  1  0.54126600  0.31724300  0.71799400  1
  O  O47  1  0.68275700  0.54126600  0.78200600  1
