# generated using pymatgen
data_Sm3NbSe3O4
_symmetry_space_group_name_H-M   'P 1'
_cell_length_a   6.94977700
_cell_length_b   7.81040500
_cell_length_c   14.99014900
_cell_angle_alpha   90.00000000
_cell_angle_beta   90.00000000
_cell_angle_gamma   90.00000000
_symmetry_Int_Tables_number   1
_chemical_formula_structural   Sm3NbSe3O4
_chemical_formula_sum   'Sm12 Nb4 Se12 O16'
_cell_volume   813.67387752
_cell_formula_units_Z   4
loop_
 _symmetry_equiv_pos_site_id
 _symmetry_equiv_pos_as_xyz
  1  'x, y, z'
loop_
 _atom_site_type_symbol
 _atom_site_label
 _atom_site_symmetry_multiplicity
 _atom_site_fract_x
 _atom_site_fract_y
 _atom_site_fract_z
 _atom_site_occupancy
  Sm  Sm0  1  0.71347500  0.50665200  0.84660300  1
  Sm  Sm1  1  0.28330500  0.25000000  0.91765900  1
  Sm  Sm2  1  0.28652500  0.49334800  0.15339700  1
  Sm  Sm3  1  0.78652500  0.49334800  0.34660300  1
  Sm  Sm4  1  0.21347500  0.99334800  0.65339700  1
  Sm  Sm5  1  0.78652500  0.00665200  0.34660300  1
  Sm  Sm6  1  0.21347500  0.50665200  0.65339700  1
  Sm  Sm7  1  0.71347500  0.99334800  0.84660300  1
  Sm  Sm8  1  0.28652500  0.00665200  0.15339700  1
  Sm  Sm9  1  0.78330500  0.25000000  0.58234100  1
  Sm  Sm10  1  0.71669500  0.75000000  0.08234100  1
  Sm  Sm11  1  0.21669500  0.75000000  0.41765900  1
  Nb  Nb12  1  0.67502600  0.25000000  0.06775100  1
  Nb  Nb13  1  0.32497400  0.75000000  0.93224900  1
  Nb  Nb14  1  0.82497400  0.75000000  0.56775100  1
  Nb  Nb15  1  0.17502600  0.25000000  0.43224900  1
  Se  Se16  1  0.99700500  0.25000000  0.77164000  1
  Se  Se17  1  0.05074900  0.75000000  0.79750200  1
  Se  Se18  1  0.00299500  0.75000000  0.22836000  1
  Se  Se19  1  0.44925100  0.25000000  0.29750200  1
  Se  Se20  1  0.49700500  0.25000000  0.72836000  1
  Se  Se21  1  0.55074900  0.75000000  0.70249800  1
  Se  Se22  1  0.50000000  0.00000000  0.50000000  1
  Se  Se23  1  0.94925100  0.25000000  0.20249800  1
  Se  Se24  1  0.50299500  0.75000000  0.27164000  1
  Se  Se25  1  0.00000000  0.50000000  0.00000000  1
  Se  Se26  1  0.00000000  0.00000000  0.00000000  1
  Se  Se27  1  0.50000000  0.50000000  0.50000000  1
  O  O28  1  0.35765300  0.75000000  0.06205800  1
  O  O29  1  0.38637300  0.52659400  0.88611700  1
  O  O30  1  0.85765300  0.75000000  0.43794200  1
  O  O31  1  0.38637300  0.97340600  0.88611700  1
  O  O32  1  0.86778100  0.25000000  0.43183600  1
  O  O33  1  0.61362700  0.47340600  0.11388300  1
  O  O34  1  0.63221900  0.75000000  0.93183600  1
  O  O35  1  0.88637300  0.97340600  0.61388300  1
  O  O36  1  0.11362700  0.02659400  0.38611700  1
  O  O37  1  0.36778100  0.25000000  0.06816400  1
  O  O38  1  0.13221900  0.75000000  0.56816400  1
  O  O39  1  0.61362700  0.02659400  0.11388300  1
  O  O40  1  0.11362700  0.47340600  0.38611700  1
  O  O41  1  0.64234700  0.25000000  0.93794200  1
  O  O42  1  0.14234700  0.25000000  0.56205800  1
  O  O43  1  0.88637300  0.52659400  0.61388300  1
