# generated using pymatgen
data_BaCu(SeO3)2
_symmetry_space_group_name_H-M   'P 1'
_cell_length_a   13.43442000
_cell_length_b   5.41531700
_cell_length_c   9.02833618
_cell_angle_alpha   89.65763860
_cell_angle_beta   90.00000000
_cell_angle_gamma   90.00000000
_symmetry_Int_Tables_number   1
_chemical_formula_structural   BaCu(SeO3)2
_chemical_formula_sum   'Ba4 Cu4 Se8 O24'
_cell_volume   656.81456464
_cell_formula_units_Z   4
loop_
 _symmetry_equiv_pos_site_id
 _symmetry_equiv_pos_as_xyz
  1  'x, y, z'
loop_
 _atom_site_type_symbol
 _atom_site_label
 _atom_site_symmetry_multiplicity
 _atom_site_fract_x
 _atom_site_fract_y
 _atom_site_fract_z
 _atom_site_occupancy
  Ba  Ba0  1  0.20129300  0.26987800  0.69093400  1
  Ba  Ba1  1  0.29870700  0.26987800  0.19093400  1
  Ba  Ba2  1  0.70129300  0.73012200  0.80906600  1
  Ba  Ba3  1  0.79870700  0.73012200  0.30906600  1
  Cu  Cu4  1  0.36713100  0.72583200  0.90037300  1
  Cu  Cu5  1  0.63286900  0.27416800  0.09962700  1
  Cu  Cu6  1  0.86713100  0.27416800  0.59962700  1
  Cu  Cu7  1  0.13286900  0.72583200  0.40037300  1
  Se  Se8  1  0.99123900  0.81211800  0.70905700  1
  Se  Se9  1  0.36200400  0.76436700  0.53510300  1
  Se  Se10  1  0.49123900  0.18788200  0.79094300  1
  Se  Se11  1  0.13799600  0.76436700  0.03510300  1
  Se  Se12  1  0.86200400  0.23563300  0.96489700  1
  Se  Se13  1  0.00876100  0.18788200  0.29094300  1
  Se  Se14  1  0.50876100  0.81211800  0.20905700  1
  Se  Se15  1  0.63799600  0.23563300  0.46489700  1
  O  O16  1  0.88459700  0.71987000  0.62391700  1
  O  O17  1  0.30426900  0.77943400  0.70863600  1
  O  O18  1  0.11540300  0.28013000  0.37608300  1
  O  O19  1  0.19573100  0.77943400  0.20863600  1
  O  O20  1  0.50455600  0.13017600  0.17241000  1
  O  O21  1  0.65975800  0.94447900  0.52828100  1
  O  O22  1  0.49544400  0.86982400  0.82759000  1
  O  O23  1  0.09378300  0.70664000  0.60869200  1
  O  O24  1  0.84024200  0.94447900  0.02828100  1
  O  O25  1  0.00455600  0.86982400  0.32759000  1
  O  O26  1  0.59378300  0.29336000  0.89130800  1
  O  O27  1  0.72915100  0.41705900  0.54922200  1
  O  O28  1  0.77084900  0.41705900  0.04922200  1
  O  O29  1  0.69573100  0.22056600  0.29136400  1
  O  O30  1  0.90621700  0.29336000  0.39130800  1
  O  O31  1  0.34024200  0.05552100  0.47171900  1
  O  O32  1  0.38459700  0.28013000  0.87608300  1
  O  O33  1  0.27084900  0.58294100  0.45077800  1
  O  O34  1  0.99544400  0.13017600  0.67241000  1
  O  O35  1  0.61540300  0.71987000  0.12391700  1
  O  O36  1  0.40621700  0.70664000  0.10869200  1
  O  O37  1  0.80426900  0.22056600  0.79136400  1
  O  O38  1  0.22915100  0.58294100  0.95077800  1
  O  O39  1  0.15975800  0.05552100  0.97171900  1
