# generated using pymatgen
data_ZnS
_symmetry_space_group_name_H-M   'P 1'
_cell_length_a   3.85146206
_cell_length_b   3.85146206
_cell_length_c   75.53898400
_cell_angle_alpha   90.00000000
_cell_angle_beta   90.00000000
_cell_angle_gamma   120.00000099
_symmetry_Int_Tables_number   1
_chemical_formula_structural   ZnS
_chemical_formula_sum   'Zn24 S24'
_cell_volume   970.40497461
_cell_formula_units_Z   24
loop_
 _symmetry_equiv_pos_site_id
 _symmetry_equiv_pos_as_xyz
  1  'x, y, z'
loop_
 _atom_site_type_symbol
 _atom_site_label
 _atom_site_symmetry_multiplicity
 _atom_site_fract_x
 _atom_site_fract_y
 _atom_site_fract_z
 _atom_site_occupancy
  Zn  Zn0  1  0.00000000  0.00000000  0.70830700  1
  Zn  Zn1  1  0.66666700  0.33333300  0.79166800  1
  Zn  Zn2  1  0.00000000  0.00000000  0.33331500  1
  Zn  Zn3  1  0.33333300  0.66666700  0.41665900  1
  Zn  Zn4  1  0.00000000  0.00000000  0.08332700  1
  Zn  Zn5  1  0.33333300  0.66666700  0.66664200  1
  Zn  Zn6  1  0.00000000  0.00000000  0.58335300  1
  Zn  Zn7  1  0.00000000  0.00000000  0.20834800  1
  Zn  Zn8  1  0.33333300  0.66666700  0.54168400  1
  Zn  Zn9  1  0.66666700  0.33333300  0.04168600  1
  Zn  Zn10  1  0.00000000  0.00000000  0.45832900  1
  Zn  Zn11  1  0.33333300  0.66666700  0.12500000  1
  Zn  Zn12  1  0.66666700  0.33333300  0.16668100  1
  Zn  Zn13  1  0.66666700  0.33333300  0.29164600  1
  Zn  Zn14  1  0.33333300  0.66666700  0.75000100  1
  Zn  Zn15  1  0.00000000  0.00000000  0.83333300  1
  Zn  Zn16  1  0.66666700  0.33333300  0.37500400  1
  Zn  Zn17  1  0.66666700  0.33333300  0.50000500  1
  Zn  Zn18  1  0.66666700  0.33333300  0.95833900  1
  Zn  Zn19  1  0.33333300  0.66666700  0.87502100  1
  Zn  Zn20  1  0.00000000  0.00000000  0.91671300  1
  Zn  Zn21  1  0.33333300  0.66666700  0.00000800  1
  Zn  Zn22  1  0.66666700  0.33333300  0.62500900  1
  Zn  Zn23  1  0.33333300  0.66666700  0.25000500  1
  S  S24  1  0.33333300  0.66666700  0.69785900  1
  S  S25  1  0.66666700  0.33333300  0.53125500  1
  S  S26  1  0.66666700  0.33333300  0.19792800  1
  S  S27  1  0.00000000  0.00000000  0.86456000  1
  S  S28  1  0.66666700  0.33333300  0.32286600  1
  S  S29  1  0.33333300  0.66666700  0.57293100  1
  S  S30  1  0.66666700  0.33333300  0.40623700  1
  S  S31  1  0.33333300  0.66666700  0.78123600  1
  S  S32  1  0.66666700  0.33333300  0.65624200  1
  S  S33  1  0.66666700  0.33333300  0.98955700  1
  S  S34  1  0.00000000  0.00000000  0.11457100  1
  S  S35  1  0.00000000  0.00000000  0.73958500  1
  S  S36  1  0.33333300  0.66666700  0.03128200  1
  S  S37  1  0.00000000  0.00000000  0.94793600  1
  S  S38  1  0.33333300  0.66666700  0.15625000  1
  S  S39  1  0.00000000  0.00000000  0.48957700  1
  S  S40  1  0.00000000  0.00000000  0.61459400  1
  S  S41  1  0.66666700  0.33333300  0.82291200  1
  S  S42  1  0.33333300  0.66666700  0.28124200  1
  S  S43  1  0.00000000  0.00000000  0.36459300  1
  S  S44  1  0.66666700  0.33333300  0.07291200  1
  S  S45  1  0.33333300  0.66666700  0.44790500  1
  S  S46  1  0.00000000  0.00000000  0.23958900  1
  S  S47  1  0.33333300  0.66666700  0.90629900  1
