# generated using pymatgen
data_BaH4(CO3)2
_symmetry_space_group_name_H-M   'P 1'
_cell_length_a   11.16918800
_cell_length_b   7.18769500
_cell_length_c   7.56195167
_cell_angle_alpha   75.02773593
_cell_angle_beta   90.00000000
_cell_angle_gamma   90.00000000
_symmetry_Int_Tables_number   1
_chemical_formula_structural   BaH4(CO3)2
_chemical_formula_sum   'Ba4 H16 C8 O24'
_cell_volume   586.46918064
_cell_formula_units_Z   4
loop_
 _symmetry_equiv_pos_site_id
 _symmetry_equiv_pos_as_xyz
  1  'x, y, z'
loop_
 _atom_site_type_symbol
 _atom_site_label
 _atom_site_symmetry_multiplicity
 _atom_site_fract_x
 _atom_site_fract_y
 _atom_site_fract_z
 _atom_site_occupancy
  Ba  Ba0  1  0.00957500  0.79210000  0.80183800  1
  Ba  Ba1  1  0.50957500  0.70790000  0.19816200  1
  Ba  Ba2  1  0.49042500  0.29210000  0.80183800  1
  Ba  Ba3  1  0.99042500  0.20790000  0.19816200  1
  H  H4  1  0.47291900  0.22351700  0.36395500  1
  H  H5  1  0.52708100  0.77648300  0.63604500  1
  H  H6  1  0.39331900  0.73986200  0.59617200  1
  H  H7  1  0.02708100  0.72351700  0.36395500  1
  H  H8  1  0.89331900  0.76013800  0.40382800  1
  H  H9  1  0.60668100  0.26013800  0.40382800  1
  H  H10  1  0.24563400  0.96259000  0.54122600  1
  H  H11  1  0.74563400  0.53741000  0.45877400  1
  H  H12  1  0.10668100  0.23986200  0.59617200  1
  H  H13  1  0.97291900  0.27648300  0.63604500  1
  H  H14  1  0.21486800  0.40297700  0.75184400  1
  H  H15  1  0.25436600  0.46259000  0.54122600  1
  H  H16  1  0.28513200  0.90297700  0.75184400  1
  H  H17  1  0.78513200  0.59702300  0.24815600  1
  H  H18  1  0.75436600  0.03741000  0.45877400  1
  H  H19  1  0.71486800  0.09702300  0.24815600  1
  C  C20  1  0.75291900  0.49213700  0.95881900  1
  C  C21  1  0.29854900  0.07162800  0.21275100  1
  C  C22  1  0.74708100  0.99213700  0.95881900  1
  C  C23  1  0.25291900  0.00786300  0.04118100  1
  C  C24  1  0.20145100  0.57162800  0.21275100  1
  C  C25  1  0.79854900  0.42837200  0.78724900  1
  C  C26  1  0.24708100  0.50786300  0.04118100  1
  C  C27  1  0.70145100  0.92837200  0.78724900  1
  O  O28  1  0.74799900  0.14831500  0.34942500  1
  O  O29  1  0.75200100  0.64831500  0.34942500  1
  O  O30  1  0.35844200  0.50193500  0.01493000  1
  O  O31  1  0.85844200  0.99806500  0.98507000  1
  O  O32  1  0.64155800  0.49806500  0.98507000  1
  O  O33  1  0.02449300  0.19264900  0.58115100  1
  O  O34  1  0.41113000  0.07097800  0.23490900  1
  O  O35  1  0.16526000  0.46359700  0.94116500  1
  O  O36  1  0.27932800  0.61683500  0.31605400  1
  O  O37  1  0.14155800  0.00193500  0.01493000  1
  O  O38  1  0.72067200  0.38316500  0.68394600  1
  O  O39  1  0.83474000  0.53640300  0.05883500  1
  O  O40  1  0.77932800  0.88316500  0.68394600  1
  O  O41  1  0.97550700  0.80735100  0.41884900  1
  O  O42  1  0.47550700  0.69264900  0.58115100  1
  O  O43  1  0.25200100  0.85168500  0.65057500  1
  O  O44  1  0.52449300  0.30735100  0.41884900  1
  O  O45  1  0.91113000  0.42902200  0.76509100  1
  O  O46  1  0.66526000  0.03640300  0.05883500  1
  O  O47  1  0.08887000  0.57097800  0.23490900  1
  O  O48  1  0.22067200  0.11683500  0.31605400  1
  O  O49  1  0.58887000  0.92902200  0.76509100  1
  O  O50  1  0.33474000  0.96359700  0.94116500  1
  O  O51  1  0.24799900  0.35168500  0.65057500  1
