# generated using pymatgen
data_Sn(SeO3)2
_symmetry_space_group_name_H-M   'P 1'
_cell_length_a   8.70923000
_cell_length_b   4.89503400
_cell_length_c   7.14055533
_cell_angle_alpha   68.64674495
_cell_angle_beta   90.00000000
_cell_angle_gamma   90.00000000
_symmetry_Int_Tables_number   1
_chemical_formula_structural   Sn(SeO3)2
_chemical_formula_sum   'Sn2 Se4 O12'
_cell_volume   283.51880433
_cell_formula_units_Z   2
loop_
 _symmetry_equiv_pos_site_id
 _symmetry_equiv_pos_as_xyz
  1  'x, y, z'
loop_
 _atom_site_type_symbol
 _atom_site_label
 _atom_site_symmetry_multiplicity
 _atom_site_fract_x
 _atom_site_fract_y
 _atom_site_fract_z
 _atom_site_occupancy
  Sn  Sn0  1  0.50000000  0.50000000  0.50000000  1
  Sn  Sn1  1  0.00000000  0.50000000  0.00000000  1
  Se  Se2  1  0.14839700  0.85977500  0.31462900  1
  Se  Se3  1  0.35160300  0.85977500  0.81462900  1
  Se  Se4  1  0.85160300  0.14022500  0.68537100  1
  Se  Se5  1  0.64839700  0.14022500  0.18537100  1
  O  O6  1  0.05766300  0.58538100  0.25886000  1
  O  O7  1  0.65879000  0.22466400  0.69741700  1
  O  O8  1  0.84563100  0.84790600  0.91585100  1
  O  O9  1  0.34563100  0.15209400  0.58414900  1
  O  O10  1  0.94233700  0.41461900  0.74114000  1
  O  O11  1  0.44233700  0.58538100  0.75886000  1
  O  O12  1  0.15436900  0.15209400  0.08414900  1
  O  O13  1  0.15879000  0.77533600  0.80258300  1
  O  O14  1  0.84121000  0.22466400  0.19741700  1
  O  O15  1  0.55766300  0.41461900  0.24114000  1
  O  O16  1  0.34121000  0.77533600  0.30258300  1
  O  O17  1  0.65436900  0.84790600  0.41585100  1
