# generated using pymatgen
data_Na4Cu(AsO4)2
_symmetry_space_group_name_H-M   'P 1'
_cell_length_a   4.94748800
_cell_length_b   5.97841552
_cell_length_c   7.05717384
_cell_angle_alpha   98.39967033
_cell_angle_beta   90.91169035
_cell_angle_gamma   105.97274742
_symmetry_Int_Tables_number   1
_chemical_formula_structural   Na4Cu(AsO4)2
_chemical_formula_sum   'Na4 Cu1 As2 O8'
_cell_volume   198.18082549
_cell_formula_units_Z   1
loop_
 _symmetry_equiv_pos_site_id
 _symmetry_equiv_pos_as_xyz
  1  'x, y, z'
loop_
 _atom_site_type_symbol
 _atom_site_label
 _atom_site_symmetry_multiplicity
 _atom_site_fract_x
 _atom_site_fract_y
 _atom_site_fract_z
 _atom_site_occupancy
  Na  Na0  1  0.28823700  0.57449300  0.16822400  1
  Na  Na1  1  0.71176300  0.42550700  0.83177600  1
  Na  Na2  1  0.16144800  0.26117600  0.57494200  1
  Na  Na3  1  0.83855200  0.73882400  0.42505800  1
  Cu  Cu4  1  0.00000000  0.00000000  0.00000000  1
  As  As5  1  0.39810200  0.80384700  0.73516000  1
  As  As6  1  0.60189800  0.19615300  0.26484000  1
  O  O7  1  0.68715900  0.27582200  0.50571400  1
  O  O8  1  0.23600100  0.14479500  0.23873100  1
  O  O9  1  0.23475000  0.56868600  0.84528400  1
  O  O10  1  0.76399900  0.85520500  0.76126900  1
  O  O11  1  0.76525000  0.43131400  0.15471600  1
  O  O12  1  0.68363200  0.93842800  0.16888400  1
  O  O13  1  0.31636800  0.06157200  0.83111600  1
  O  O14  1  0.31284100  0.72417800  0.49428600  1
