# generated using pymatgen
data_La2Si2O7
_symmetry_space_group_name_H-M   'P 1'
_cell_length_a   23.60619000
_cell_length_b   7.41487500
_cell_length_c   10.21394589
_cell_angle_alpha   89.34969176
_cell_angle_beta   90.00000000
_cell_angle_gamma   90.00000000
_symmetry_Int_Tables_number   1
_chemical_formula_structural   La2Si2O7
_chemical_formula_sum   'La24 Si24 O84'
_cell_volume   1787.70276134
_cell_formula_units_Z   12
loop_
 _symmetry_equiv_pos_site_id
 _symmetry_equiv_pos_as_xyz
  1  'x, y, z'
loop_
 _atom_site_type_symbol
 _atom_site_label
 _atom_site_symmetry_multiplicity
 _atom_site_fract_x
 _atom_site_fract_y
 _atom_site_fract_z
 _atom_site_occupancy
  La  La0  1  0.31584000  0.08987000  0.26415200  1
  La  La1  1  0.18418300  0.59479700  0.73917000  1
  La  La2  1  0.15794200  0.85051900  0.36096100  1
  La  La3  1  0.68416000  0.91013000  0.73584800  1
  La  La4  1  0.81584000  0.91013000  0.23584800  1
  La  La5  1  0.18416000  0.08987000  0.76415200  1
  La  La6  1  0.07475900  0.35686400  0.50727700  1
  La  La7  1  0.81581700  0.40520300  0.26083000  1
  La  La8  1  0.42524100  0.35686400  0.00727700  1
  La  La9  1  0.66557200  0.67218200  0.36435300  1
  La  La10  1  0.31581700  0.59479700  0.23917000  1
  La  La11  1  0.83442800  0.67218200  0.86435300  1
  La  La12  1  0.07685200  0.86623400  0.00800300  1
  La  La13  1  0.42314800  0.86623400  0.50800300  1
  La  La14  1  0.34205800  0.85051900  0.86096100  1
  La  La15  1  0.57475900  0.64313600  0.99272300  1
  La  La16  1  0.57685200  0.13376600  0.49199700  1
  La  La17  1  0.65794200  0.14948100  0.13903900  1
  La  La18  1  0.68418300  0.40520300  0.76083000  1
  La  La19  1  0.84205800  0.14948100  0.63903900  1
  La  La20  1  0.92524100  0.64313600  0.49272300  1
  La  La21  1  0.92314800  0.13376600  0.99199700  1
  La  La22  1  0.16557200  0.32781800  0.13564700  1
  La  La23  1  0.33442800  0.32781800  0.63564700  1
  Si  Si24  1  0.57988300  0.14864100  0.87273800  1
  Si  Si25  1  0.72417200  0.19275900  0.44227000  1
  Si  Si26  1  0.96692600  0.41817600  0.76622300  1
  Si  Si27  1  0.46692600  0.58182400  0.73377700  1
  Si  Si28  1  0.03307400  0.58182400  0.23377700  1
  Si  Si29  1  0.53505400  0.84097300  0.26124400  1
  Si  Si30  1  0.28032000  0.30772000  0.93529400  1
  Si  Si31  1  0.07988300  0.85135900  0.62726200  1
  Si  Si32  1  0.21968000  0.30772000  0.43529400  1
  Si  Si33  1  0.42011700  0.85135900  0.12726200  1
  Si  Si34  1  0.41699700  0.35871700  0.38280700  1
  Si  Si35  1  0.91699700  0.64128300  0.11719300  1
  Si  Si36  1  0.58300300  0.64128300  0.61719300  1
  Si  Si37  1  0.71968000  0.69228000  0.06470600  1
  Si  Si38  1  0.53307400  0.41817600  0.26622300  1
  Si  Si39  1  0.96494600  0.84097300  0.76124400  1
  Si  Si40  1  0.46494600  0.15902700  0.73875600  1
  Si  Si41  1  0.92011700  0.14864100  0.37273800  1
  Si  Si42  1  0.77582800  0.19275900  0.94227100  1
  Si  Si43  1  0.08300300  0.35871700  0.88280700  1
  Si  Si44  1  0.22417200  0.80724100  0.05773000  1
  Si  Si45  1  0.27582800  0.80724100  0.55772900  1
  Si  Si46  1  0.03505400  0.15902700  0.23875600  1
  Si  Si47  1  0.78032000  0.69228000  0.56470600  1
  O  O48  1  0.22460100  0.79190500  0.89600100  1
  O  O49  1  0.71059800  0.13285800  0.90126000  1
  O  O50  1  0.50813700  0.42517700  0.11995500  1
  O  O51  1  0.21548500  0.61836200  0.14362900  1
  O  O52  1  0.98719500  0.65237100  0.12236200  1
  O  O53  1  0.67586200  0.04790900  0.39806000  1
  O  O54  1  0.78528800  0.63044100  0.10037500  1
  O  O55  1  0.28086900  0.28854100  0.09681500  1
  O  O56  1  0.49095500  0.83177400  0.13434600  1
  O  O57  1  0.60620300  0.32332300  0.94955600  1
  O  O58  1  0.17586200  0.95209100  0.10194000  1
  O  O59  1  0.10889600  0.17961400  0.95740300  1
  O  O60  1  0.28940200  0.86714200  0.09874000  1
  O  O61  1  0.78451500  0.38163800  0.85637100  1
  O  O62  1  0.21913100  0.28854100  0.59681500  1
  O  O63  1  0.33247400  0.43684000  0.88415800  1
  O  O64  1  0.94896900  0.62778600  0.80347400  1
  O  O65  1  0.09748300  0.09387900  0.28156800  1
  O  O66  1  0.89110400  0.82038600  0.04259700  1
  O  O67  1  0.60972700  0.64829200  0.76744300  1
  O  O68  1  0.71512000  0.87609500  0.15495700  1
  O  O69  1  0.49385300  0.05395200  0.62088100  1
  O  O70  1  0.60932500  0.15220900  0.72533300  1
  O  O71  1  0.89989500  0.96282200  0.44549800  1
  O  O72  1  0.50614700  0.94604800  0.37911900  1
  O  O73  1  0.90251700  0.90612100  0.71843200  1
  O  O74  1  0.05103100  0.37221400  0.19652600  1
  O  O75  1  0.39989500  0.03717800  0.05450200  1
  O  O76  1  0.40251700  0.09387900  0.78156800  1
  O  O77  1  0.10010500  0.03717800  0.55450200  1
  O  O78  1  0.71548500  0.38163800  0.35637100  1
  O  O79  1  0.60889600  0.82038600  0.54259700  1
  O  O80  1  0.91077500  0.29596500  0.78227900  1
  O  O81  1  0.71913100  0.71145900  0.90318500  1
  O  O82  1  0.59748300  0.90612100  0.21843200  1
  O  O83  1  0.44896900  0.37221400  0.69652600  1
  O  O84  1  0.82413800  0.04790900  0.89806000  1
  O  O85  1  0.89379700  0.32332300  0.44955600  1
  O  O86  1  0.10932500  0.84779100  0.77466700  1
  O  O87  1  0.27539900  0.79190500  0.39600100  1
  O  O88  1  0.28528800  0.36955900  0.39962500  1
  O  O89  1  0.60644200  0.46170200  0.54512800  1
  O  O90  1  0.58922500  0.29596500  0.28227900  1
  O  O91  1  0.28488000  0.12390500  0.84504300  1
  O  O92  1  0.00813700  0.57482300  0.38004500  1
  O  O93  1  0.16752600  0.43684000  0.38415800  1
  O  O94  1  0.21471200  0.36955900  0.89962500  1
  O  O95  1  0.10644200  0.53829800  0.95487200  1
  O  O96  1  0.78488000  0.87609500  0.65495700  1
  O  O97  1  0.89355800  0.46170200  0.04512800  1
  O  O98  1  0.60010500  0.96282200  0.94549800  1
  O  O99  1  0.55103100  0.62778600  0.30347400  1
  O  O100  1  0.49186300  0.57482300  0.88004500  1
  O  O101  1  0.39379700  0.67667700  0.05044400  1
  O  O102  1  0.51280500  0.65237100  0.62236200  1
  O  O103  1  0.41077500  0.70403500  0.71772100  1
  O  O104  1  0.28451500  0.61836200  0.64362900  1
  O  O105  1  0.72460100  0.20809500  0.60399900  1
  O  O106  1  0.39027300  0.35170800  0.23255700  1
  O  O107  1  0.39355800  0.53829800  0.45487200  1
  O  O108  1  0.71471200  0.63044100  0.60037500  1
  O  O109  1  0.78940200  0.13285800  0.40126000  1
  O  O110  1  0.10972700  0.35170800  0.73255700  1
  O  O111  1  0.83247400  0.56316000  0.61584200  1
  O  O112  1  0.89027300  0.64829200  0.26744300  1
  O  O113  1  0.08922500  0.70403500  0.21772100  1
  O  O114  1  0.99385300  0.94604800  0.87911900  1
  O  O115  1  0.99186300  0.42517700  0.61995500  1
  O  O116  1  0.00904500  0.83177400  0.63434600  1
  O  O117  1  0.77539900  0.20809500  0.10399900  1
  O  O118  1  0.39067500  0.84779100  0.27466700  1
  O  O119  1  0.99095500  0.16822600  0.36565400  1
  O  O120  1  0.00614700  0.05395200  0.12088100  1
  O  O121  1  0.10620300  0.67667700  0.55044400  1
  O  O122  1  0.48719500  0.34762900  0.37763800  1
  O  O123  1  0.21059800  0.86714200  0.59874000  1
  O  O124  1  0.50904500  0.16822600  0.86565400  1
  O  O125  1  0.01280500  0.34762900  0.87763800  1
  O  O126  1  0.89067500  0.15220900  0.22533300  1
  O  O127  1  0.66752600  0.56316000  0.11584200  1
  O  O128  1  0.21512000  0.12390500  0.34504300  1
  O  O129  1  0.32413800  0.95209100  0.60194000  1
  O  O130  1  0.78086900  0.71145900  0.40318500  1
  O  O131  1  0.39110400  0.17961400  0.45740300  1
