# generated using pymatgen
data_In6S7
_symmetry_space_group_name_H-M   'P 1'
_cell_length_a   3.94589100
_cell_length_b   9.24381500
_cell_length_c   17.51002506
_cell_angle_alpha   77.98848505
_cell_angle_beta   90.00000000
_cell_angle_gamma   90.00000000
_symmetry_Int_Tables_number   1
_chemical_formula_structural   In6S7
_chemical_formula_sum   'In12 S14'
_cell_volume   624.69629406
_cell_formula_units_Z   2
loop_
 _symmetry_equiv_pos_site_id
 _symmetry_equiv_pos_as_xyz
  1  'x, y, z'
loop_
 _atom_site_type_symbol
 _atom_site_label
 _atom_site_symmetry_multiplicity
 _atom_site_fract_x
 _atom_site_fract_y
 _atom_site_fract_z
 _atom_site_occupancy
  In  In0  1  0.25000000  0.18309600  0.18865600  1
  In  In1  1  0.75000000  0.06778400  0.87878500  1
  In  In2  1  0.25000000  0.97787700  0.60357200  1
  In  In3  1  0.25000000  0.67286100  0.46843400  1
  In  In4  1  0.75000000  0.02212300  0.39642800  1
  In  In5  1  0.75000000  0.64507900  0.04618400  1
  In  In6  1  0.75000000  0.81690400  0.81134400  1
  In  In7  1  0.25000000  0.93221600  0.12121500  1
  In  In8  1  0.75000000  0.32713900  0.53156600  1
  In  In9  1  0.25000000  0.53062900  0.27503000  1
  In  In10  1  0.25000000  0.35492100  0.95381600  1
  In  In11  1  0.75000000  0.46937100  0.72497000  1
  S  S12  1  0.75000000  0.75440000  0.17418600  1
  S  S13  1  0.75000000  0.53646800  0.41038700  1
  S  S14  1  0.75000000  0.55656100  0.91008000  1
  S  S15  1  0.25000000  0.44343900  0.08992000  1
  S  S16  1  0.75000000  0.24045600  0.27227600  1
  S  S17  1  0.25000000  0.75954400  0.72772400  1
  S  S18  1  0.75000000  0.16596900  0.00495300  1
  S  S19  1  0.75000000  0.11582000  0.65266000  1
  S  S20  1  0.25000000  0.24560000  0.82581400  1
  S  S21  1  0.25000000  0.16795400  0.46840300  1
  S  S22  1  0.25000000  0.88418000  0.34734000  1
  S  S23  1  0.25000000  0.46353200  0.58961300  1
  S  S24  1  0.75000000  0.83204600  0.53159700  1
  S  S25  1  0.25000000  0.83403100  0.99504700  1
