# generated using pymatgen
data_Ca3Cu3(AsO4)4
_symmetry_space_group_name_H-M   'P 1'
_cell_length_a   5.14602600
_cell_length_b   9.27211300
_cell_length_c   16.91954939
_cell_angle_alpha   63.30750500
_cell_angle_beta   90.00000000
_cell_angle_gamma   90.00000000
_symmetry_Int_Tables_number   1
_chemical_formula_structural   Ca3Cu3(AsO4)4
_chemical_formula_sum   'Ca6 Cu6 As8 O32'
_cell_volume   721.27375586
_cell_formula_units_Z   2
loop_
 _symmetry_equiv_pos_site_id
 _symmetry_equiv_pos_as_xyz
  1  'x, y, z'
loop_
 _atom_site_type_symbol
 _atom_site_label
 _atom_site_symmetry_multiplicity
 _atom_site_fract_x
 _atom_site_fract_y
 _atom_site_fract_z
 _atom_site_occupancy
  Ca  Ca0  1  0.53175600  0.30321200  0.23281600  1
  Ca  Ca1  1  0.03175600  0.69678800  0.26718400  1
  Ca  Ca2  1  0.46824400  0.69678800  0.76718400  1
  Ca  Ca3  1  0.96824400  0.30321200  0.73281600  1
  Ca  Ca4  1  0.50000000  0.00000000  0.50000000  1
  Ca  Ca5  1  0.00000000  0.00000000  0.00000000  1
  Cu  Cu6  1  0.47350300  0.20947400  0.61885600  1
  Cu  Cu7  1  0.52649700  0.79052600  0.38114400  1
  Cu  Cu8  1  0.97350300  0.79052600  0.88114400  1
  Cu  Cu9  1  0.02649700  0.20947400  0.11885600  1
  Cu  Cu10  1  0.00000000  0.50000000  0.50000000  1
  Cu  Cu11  1  0.50000000  0.50000000  0.00000000  1
  As  As12  1  0.00768000  0.03959300  0.34031300  1
  As  As13  1  0.49305400  0.43600000  0.40639600  1
  As  As14  1  0.99305400  0.56400000  0.09360400  1
  As  As15  1  0.00694600  0.43600000  0.90639600  1
  As  As16  1  0.99232000  0.96040700  0.65968700  1
  As  As17  1  0.50694600  0.56400000  0.59360400  1
  As  As18  1  0.49232000  0.03959300  0.84031300  1
  As  As19  1  0.50768000  0.96040700  0.15968700  1
  O  O20  1  0.44412700  0.80889500  0.26665500  1
  O  O21  1  0.93523000  0.74813100  0.00428900  1
  O  O22  1  0.38738500  0.43924400  0.31125300  1
  O  O23  1  0.40590300  0.14574300  0.15021100  1
  O  O24  1  0.61261500  0.56075600  0.68874700  1
  O  O25  1  0.05587300  0.80889500  0.76665500  1
  O  O26  1  0.88738500  0.56075600  0.18874700  1
  O  O27  1  0.68711600  0.50121500  0.89863300  1
  O  O28  1  0.66194500  0.10651400  0.90292700  1
  O  O29  1  0.55587300  0.19110500  0.73334500  1
  O  O30  1  0.09409700  0.14574300  0.65021100  1
  O  O31  1  0.31288400  0.49878500  0.10136700  1
  O  O32  1  0.30296600  0.58066100  0.42250400  1
  O  O33  1  0.33805500  0.89348600  0.09707300  1
  O  O34  1  0.66123700  0.96130000  0.64358900  1
  O  O35  1  0.16123700  0.03870000  0.85641100  1
  O  O36  1  0.80296600  0.41933900  0.07749600  1
  O  O37  1  0.11261500  0.43924400  0.81125300  1
  O  O38  1  0.16194500  0.89348600  0.59707300  1
  O  O39  1  0.18711600  0.49878500  0.60136700  1
  O  O40  1  0.83876300  0.96130000  0.14358900  1
  O  O41  1  0.33876300  0.03870000  0.35641100  1
  O  O42  1  0.06477000  0.25186900  0.99571100  1
  O  O43  1  0.43523000  0.25186900  0.49571100  1
  O  O44  1  0.69703400  0.41933900  0.57749600  1
  O  O45  1  0.94412700  0.19110500  0.23334500  1
  O  O46  1  0.59409700  0.85425700  0.84978900  1
  O  O47  1  0.83805500  0.10651400  0.40292700  1
  O  O48  1  0.56477000  0.74813100  0.50428900  1
  O  O49  1  0.81288400  0.50121500  0.39863300  1
  O  O50  1  0.19703400  0.58066100  0.92250400  1
  O  O51  1  0.90590300  0.85425700  0.34978900  1
