# generated using pymatgen
data_TaP4S4Cl5
_symmetry_space_group_name_H-M   'P 1'
_cell_length_a   7.08650900
_cell_length_b   9.63895374
_cell_length_c   14.11726447
_cell_angle_alpha   103.63272876
_cell_angle_beta   86.89421580
_cell_angle_gamma   111.15099512
_symmetry_Int_Tables_number   1
_chemical_formula_structural   TaP4S4Cl5
_chemical_formula_sum   'Ta2 P8 S8 Cl10'
_cell_volume   873.49458286
_cell_formula_units_Z   2
loop_
 _symmetry_equiv_pos_site_id
 _symmetry_equiv_pos_as_xyz
  1  'x, y, z'
loop_
 _atom_site_type_symbol
 _atom_site_label
 _atom_site_symmetry_multiplicity
 _atom_site_fract_x
 _atom_site_fract_y
 _atom_site_fract_z
 _atom_site_occupancy
  Ta  Ta0  1  0.86840700  0.26315400  0.16808700  1
  Ta  Ta1  1  0.13159300  0.73684600  0.83191300  1
  P  P2  1  0.88193900  0.61524800  0.42475100  1
  P  P3  1  0.11806100  0.38475200  0.57524900  1
  P  P4  1  0.88149700  0.56009200  0.25127300  1
  P  P5  1  0.11850300  0.43990800  0.74872700  1
  P  P6  1  0.92691600  0.08316400  0.66451200  1
  P  P7  1  0.29029600  0.17654100  0.67032000  1
  P  P8  1  0.70970400  0.82345900  0.32968000  1
  P  P9  1  0.07308400  0.91683600  0.33548800  1
  S  S10  1  0.87379800  0.17164700  0.54804800  1
  S  S11  1  0.12621300  0.74730400  0.22237400  1
  S  S12  1  0.64594900  0.62428400  0.21487300  1
  S  S13  1  0.87378700  0.25269600  0.77762600  1
  S  S14  1  0.12620200  0.82835300  0.45195200  1
  S  S15  1  0.64863400  0.70678000  0.44462500  1
  S  S16  1  0.35136600  0.29322000  0.55537500  1
  S  S17  1  0.35405100  0.37571600  0.78512700  1
  Cl  Cl18  1  0.88715500  0.62215900  0.93455700  1
  Cl  Cl19  1  0.14215500  0.98297400  0.88437700  1
  Cl  Cl20  1  0.38286600  0.74774000  0.93624600  1
  Cl  Cl21  1  0.11284500  0.37784100  0.06544300  1
  Cl  Cl22  1  0.62494700  0.21899300  0.28889700  1
  Cl  Cl23  1  0.37505300  0.78100700  0.71110300  1
  Cl  Cl24  1  0.12325300  0.34232100  0.29014100  1
  Cl  Cl25  1  0.87674700  0.65767900  0.70985900  1
  Cl  Cl26  1  0.61713400  0.25226000  0.06375400  1
  Cl  Cl27  1  0.85784500  0.01702600  0.11562300  1
