# generated using pymatgen
data_Cd3(BO3)2
_symmetry_space_group_name_H-M   'P 1'
_cell_length_a   4.84219400
_cell_length_b   6.09890000
_cell_length_c   9.17602700
_cell_angle_alpha   90.00000000
_cell_angle_beta   90.00000000
_cell_angle_gamma   90.00000000
_symmetry_Int_Tables_number   1
_chemical_formula_structural   Cd3(BO3)2
_chemical_formula_sum   'Cd6 B4 O12'
_cell_volume   270.98695227
_cell_formula_units_Z   2
loop_
 _symmetry_equiv_pos_site_id
 _symmetry_equiv_pos_as_xyz
  1  'x, y, z'
loop_
 _atom_site_type_symbol
 _atom_site_label
 _atom_site_symmetry_multiplicity
 _atom_site_fract_x
 _atom_site_fract_y
 _atom_site_fract_z
 _atom_site_occupancy
  Cd  Cd0  1  0.00000000  0.50000000  0.18865400  1
  Cd  Cd1  1  0.50000000  0.00000000  0.31134600  1
  Cd  Cd2  1  0.00000000  0.50000000  0.81134600  1
  Cd  Cd3  1  0.50000000  0.00000000  0.68865400  1
  Cd  Cd4  1  0.50000000  0.50000000  0.50000000  1
  Cd  Cd5  1  0.00000000  0.00000000  0.00000000  1
  B  B6  1  0.03415900  0.24137300  0.50000000  1
  B  B7  1  0.46584100  0.74137300  0.00000000  1
  B  B8  1  0.96584100  0.75862700  0.50000000  1
  B  B9  1  0.53415900  0.25862700  0.00000000  1
  O  O10  1  0.32133300  0.78326400  0.87015200  1
  O  O11  1  0.82133300  0.71673600  0.62984800  1
  O  O12  1  0.32133300  0.78326400  0.12984800  1
  O  O13  1  0.67866700  0.21673600  0.12984800  1
  O  O14  1  0.82133300  0.71673600  0.37015200  1
  O  O15  1  0.17866700  0.28326400  0.37015200  1
  O  O16  1  0.74104500  0.67951800  0.00000000  1
  O  O17  1  0.24104500  0.82048200  0.50000000  1
  O  O18  1  0.75895500  0.17951800  0.50000000  1
  O  O19  1  0.25895500  0.32048200  0.00000000  1
  O  O20  1  0.67866700  0.21673600  0.87015200  1
  O  O21  1  0.17866700  0.28326400  0.62984800  1
