# generated using pymatgen
data_Sn2P2O7
_symmetry_space_group_name_H-M   'P 1'
_cell_length_a   9.74364200
_cell_length_b   5.47199100
_cell_length_c   7.69827255
_cell_angle_alpha   63.63386178
_cell_angle_beta   90.00000000
_cell_angle_gamma   90.00000000
_symmetry_Int_Tables_number   1
_chemical_formula_structural   Sn2P2O7
_chemical_formula_sum   'Sn4 P4 O14'
_cell_volume   367.75244511
_cell_formula_units_Z   2
loop_
 _symmetry_equiv_pos_site_id
 _symmetry_equiv_pos_as_xyz
  1  'x, y, z'
loop_
 _atom_site_type_symbol
 _atom_site_label
 _atom_site_symmetry_multiplicity
 _atom_site_fract_x
 _atom_site_fract_y
 _atom_site_fract_z
 _atom_site_occupancy
  Sn  Sn0  1  0.38078900  0.35556700  0.84844100  1
  Sn  Sn1  1  0.88078900  0.64443300  0.65155900  1
  Sn  Sn2  1  0.61921100  0.64443300  0.15155900  1
  Sn  Sn3  1  0.11921100  0.35556700  0.34844100  1
  P  P4  1  0.39244000  0.89891900  0.38891200  1
  P  P5  1  0.60756000  0.10108100  0.61108800  1
  P  P6  1  0.89244000  0.10108100  0.11108800  1
  P  P7  1  0.10756000  0.89891900  0.88891200  1
  O  O8  1  0.84095900  0.38190000  0.96541600  1
  O  O9  1  0.65904100  0.38190000  0.46541600  1
  O  O10  1  0.53118300  0.10743300  0.78379800  1
  O  O11  1  0.72033300  0.88468000  0.69054500  1
  O  O12  1  0.15904100  0.61810000  0.03458400  1
  O  O13  1  0.27966700  0.11532000  0.30945500  1
  O  O14  1  0.22033300  0.11532000  0.80945500  1
  O  O15  1  0.46881700  0.89256700  0.21620200  1
  O  O16  1  0.00000000  0.00000000  0.00000000  1
  O  O17  1  0.34095900  0.61810000  0.53458400  1
  O  O18  1  0.03118300  0.89256700  0.71620200  1
  O  O19  1  0.50000000  0.00000000  0.50000000  1
  O  O20  1  0.77966700  0.88468000  0.19054500  1
  O  O21  1  0.96881700  0.10743300  0.28379800  1
