# generated using pymatgen
data_Na2Si3O7
_symmetry_space_group_name_H-M   'P 1'
_cell_length_a   10.73429100
_cell_length_b   7.29481100
_cell_length_c   9.93890713
_cell_angle_alpha   59.71806733
_cell_angle_beta   90.00000000
_cell_angle_gamma   90.00000000
_symmetry_Int_Tables_number   1
_chemical_formula_structural   Na2Si3O7
_chemical_formula_sum   'Na8 Si12 O28'
_cell_volume   672.07206607
_cell_formula_units_Z   4
loop_
 _symmetry_equiv_pos_site_id
 _symmetry_equiv_pos_as_xyz
  1  'x, y, z'
loop_
 _atom_site_type_symbol
 _atom_site_label
 _atom_site_symmetry_multiplicity
 _atom_site_fract_x
 _atom_site_fract_y
 _atom_site_fract_z
 _atom_site_occupancy
  Na  Na0  1  0.30359700  0.78889400  0.62242200  1
  Na  Na1  1  0.93954100  0.74872700  0.57001700  1
  Na  Na2  1  0.56045900  0.74872700  0.07001700  1
  Na  Na3  1  0.43954100  0.25127300  0.92998300  1
  Na  Na4  1  0.19640300  0.78889400  0.12242200  1
  Na  Na5  1  0.06045900  0.25127300  0.42998300  1
  Na  Na6  1  0.69640300  0.21110600  0.37757800  1
  Na  Na7  1  0.80359700  0.21110600  0.87757800  1
  Si  Si8  1  0.81680000  0.62057200  0.97592700  1
  Si  Si9  1  0.43161400  0.83520900  0.31575600  1
  Si  Si10  1  0.18320000  0.37942800  0.02407300  1
  Si  Si11  1  0.39382800  0.27799400  0.27282000  1
  Si  Si12  1  0.89382800  0.72200600  0.22718000  1
  Si  Si13  1  0.10617200  0.27799400  0.77282000  1
  Si  Si14  1  0.68320000  0.62057200  0.47592700  1
  Si  Si15  1  0.06838600  0.83520900  0.81575600  1
  Si  Si16  1  0.31680000  0.37942800  0.52407300  1
  Si  Si17  1  0.60617200  0.72200600  0.72718000  1
  Si  Si18  1  0.56838600  0.16479100  0.68424400  1
  Si  Si19  1  0.93161400  0.16479100  0.18424400  1
  O  O20  1  0.85590800  0.37320900  0.04588800  1
  O  O21  1  0.70449800  0.67254300  0.61723600  1
  O  O22  1  0.10532800  0.89763000  0.64334800  1
  O  O23  1  0.39467200  0.89763000  0.14334800  1
  O  O24  1  0.20449800  0.32745700  0.88276400  1
  O  O25  1  0.97533600  0.38965900  0.74329400  1
  O  O26  1  0.29550200  0.32745700  0.38276400  1
  O  O27  1  0.60183000  0.98590900  0.63369600  1
  O  O28  1  0.14409200  0.62679100  0.95411200  1
  O  O29  1  0.08329100  0.21650100  0.15251500  1
  O  O30  1  0.41670900  0.21650100  0.65251500  1
  O  O31  1  0.10183000  0.01409100  0.86630400  1
  O  O32  1  0.89467200  0.10237000  0.35665200  1
  O  O33  1  0.89817000  0.98590900  0.13369600  1
  O  O34  1  0.02466400  0.61034100  0.25670600  1
  O  O35  1  0.18234300  0.35048200  0.60780700  1
  O  O36  1  0.35590800  0.62679100  0.45411200  1
  O  O37  1  0.58329100  0.78349900  0.34748500  1
  O  O38  1  0.31765700  0.35048200  0.10780700  1
  O  O39  1  0.52466400  0.38965900  0.24329400  1
  O  O40  1  0.91670900  0.78349900  0.84748500  1
  O  O41  1  0.64409200  0.37320900  0.54588800  1
  O  O42  1  0.47533600  0.61034100  0.75670600  1
  O  O43  1  0.79550200  0.67254300  0.11723600  1
  O  O44  1  0.39817000  0.01409100  0.36630400  1
  O  O45  1  0.68234300  0.64951800  0.89219300  1
  O  O46  1  0.81765700  0.64951800  0.39219300  1
  O  O47  1  0.60532800  0.10237000  0.85665200  1
