# generated using pymatgen
data_KRb2CrF6
_symmetry_space_group_name_H-M   'P 1'
_cell_length_a   6.36622377
_cell_length_b   6.36622377
_cell_length_c   6.36622377
_cell_angle_alpha   60.00000000
_cell_angle_beta   60.00000000
_cell_angle_gamma   60.00000000
_symmetry_Int_Tables_number   1
_chemical_formula_structural   KRb2CrF6
_chemical_formula_sum   'K1 Rb2 Cr1 F6'
_cell_volume   182.44446913
_cell_formula_units_Z   1
loop_
 _symmetry_equiv_pos_site_id
 _symmetry_equiv_pos_as_xyz
  1  'x, y, z'
loop_
 _atom_site_type_symbol
 _atom_site_label
 _atom_site_symmetry_multiplicity
 _atom_site_fract_x
 _atom_site_fract_y
 _atom_site_fract_z
 _atom_site_occupancy
  K  K0  1  0.50000000  0.50000000  0.50000000  1
  Rb  Rb1  1  0.25000000  0.25000000  0.25000000  1
  Rb  Rb2  1  0.75000000  0.75000000  0.75000000  1
  Cr  Cr3  1  0.00000000  0.00000000  0.00000000  1
  F  F4  1  0.78301100  0.78301100  0.21698900  1
  F  F5  1  0.78301100  0.21698900  0.78301100  1
  F  F6  1  0.21698900  0.78301100  0.21698900  1
  F  F7  1  0.78301100  0.21698900  0.21698900  1
  F  F8  1  0.21698900  0.21698900  0.78301100  1
  F  F9  1  0.21698900  0.78301100  0.78301100  1
