# generated using pymatgen
data_NaBi2Sb3O11
_symmetry_space_group_name_H-M   'P 1'
_cell_length_a   9.64539700
_cell_length_b   9.64539700
_cell_length_c   9.64539700
_cell_angle_alpha   90.00000000
_cell_angle_beta   90.00000000
_cell_angle_gamma   90.00000000
_symmetry_Int_Tables_number   1
_chemical_formula_structural   NaBi2Sb3O11
_chemical_formula_sum   'Na4 Bi8 Sb12 O44'
_cell_volume   897.34680968
_cell_formula_units_Z   4
loop_
 _symmetry_equiv_pos_site_id
 _symmetry_equiv_pos_as_xyz
  1  'x, y, z'
loop_
 _atom_site_type_symbol
 _atom_site_label
 _atom_site_symmetry_multiplicity
 _atom_site_fract_x
 _atom_site_fract_y
 _atom_site_fract_z
 _atom_site_occupancy
  Na  Na0  1  0.25000000  0.25000000  0.75000000  1
  Na  Na1  1  0.75000000  0.75000000  0.75000000  1
  Na  Na2  1  0.75000000  0.25000000  0.25000000  1
  Na  Na3  1  0.25000000  0.75000000  0.25000000  1
  Bi  Bi4  1  0.87397000  0.87397000  0.12603000  1
  Bi  Bi5  1  0.37397000  0.62603000  0.62603000  1
  Bi  Bi6  1  0.37397000  0.37397000  0.37397000  1
  Bi  Bi7  1  0.87397000  0.12603000  0.87397000  1
  Bi  Bi8  1  0.62603000  0.37397000  0.62603000  1
  Bi  Bi9  1  0.12603000  0.12603000  0.12603000  1
  Bi  Bi10  1  0.12603000  0.87397000  0.87397000  1
  Bi  Bi11  1  0.62603000  0.62603000  0.37397000  1
  Sb  Sb12  1  0.50000000  0.83936300  0.00000000  1
  Sb  Sb13  1  0.00000000  0.33936300  0.50000000  1
  Sb  Sb14  1  0.33936300  0.50000000  0.00000000  1
  Sb  Sb15  1  0.50000000  0.00000000  0.66063700  1
  Sb  Sb16  1  0.66063700  0.50000000  0.00000000  1
  Sb  Sb17  1  0.16063700  0.00000000  0.50000000  1
  Sb  Sb18  1  0.00000000  0.66063700  0.50000000  1
  Sb  Sb19  1  0.50000000  0.00000000  0.33936300  1
  Sb  Sb20  1  0.00000000  0.50000000  0.16063700  1
  Sb  Sb21  1  0.00000000  0.50000000  0.83936300  1
  Sb  Sb22  1  0.83936300  0.00000000  0.50000000  1
  Sb  Sb23  1  0.50000000  0.16063700  0.00000000  1
  O  O24  1  0.00000000  0.63708800  0.00000000  1
  O  O25  1  0.83850700  0.21091000  0.50010800  1
  O  O26  1  0.71091000  0.99989200  0.33850700  1
  O  O27  1  0.50000000  0.86291200  0.50000000  1
  O  O28  1  0.00000000  0.00000000  0.63708800  1
  O  O29  1  0.66149300  0.71091000  0.00010800  1
  O  O30  1  0.28909000  0.99989200  0.66149300  1
  O  O31  1  0.86291200  0.50000000  0.50000000  1
  O  O32  1  0.78909000  0.50010800  0.16149300  1
  O  O33  1  0.50000000  0.50000000  0.13708800  1
  O  O34  1  0.21091000  0.50010800  0.83850700  1
  O  O35  1  0.99989200  0.66149300  0.28909000  1
  O  O36  1  0.63708800  0.00000000  0.00000000  1
  O  O37  1  0.83850700  0.78909000  0.49989200  1
  O  O38  1  0.39716500  0.60283500  0.39716500  1
  O  O39  1  0.50000000  0.13708800  0.50000000  1
  O  O40  1  0.50010800  0.83850700  0.21091000  1
  O  O41  1  0.89716500  0.10283500  0.10283500  1
  O  O42  1  0.13708800  0.50000000  0.50000000  1
  O  O43  1  0.50000000  0.50000000  0.86291200  1
  O  O44  1  0.33850700  0.28909000  0.00010800  1
  O  O45  1  0.00010800  0.33850700  0.28909000  1
  O  O46  1  0.36291200  0.00000000  0.00000000  1
  O  O47  1  0.66149300  0.28909000  0.99989200  1
  O  O48  1  0.10283500  0.89716500  0.10283500  1
  O  O49  1  0.28909000  0.00010800  0.33850700  1
  O  O50  1  0.71091000  0.00010800  0.66149300  1
  O  O51  1  0.33850700  0.71091000  0.99989200  1
  O  O52  1  0.89716500  0.89716500  0.89716500  1
  O  O53  1  0.99989200  0.33850700  0.71091000  1
  O  O54  1  0.60283500  0.39716500  0.39716500  1
  O  O55  1  0.16149300  0.21091000  0.49989200  1
  O  O56  1  0.16149300  0.78909000  0.50010800  1
  O  O57  1  0.49989200  0.83850700  0.78909000  1
  O  O58  1  0.00000000  0.36291200  0.00000000  1
  O  O59  1  0.50010800  0.16149300  0.78909000  1
  O  O60  1  0.00010800  0.66149300  0.71091000  1
  O  O61  1  0.21091000  0.49989200  0.16149300  1
  O  O62  1  0.78909000  0.49989200  0.83850700  1
  O  O63  1  0.39716500  0.39716500  0.60283500  1
  O  O64  1  0.60283500  0.60283500  0.60283500  1
  O  O65  1  0.10283500  0.10283500  0.89716500  1
  O  O66  1  0.00000000  0.00000000  0.36291200  1
  O  O67  1  0.49989200  0.16149300  0.21091000  1
