# generated using pymatgen
data_AsS
_symmetry_space_group_name_H-M   'P 1'
_cell_length_a   10.14236800
_cell_length_b   8.95815600
_cell_length_c   10.48269831
_cell_angle_alpha   82.21654122
_cell_angle_beta   90.00000000
_cell_angle_gamma   90.00000000
_symmetry_Int_Tables_number   1
_chemical_formula_structural   AsS
_chemical_formula_sum   'As16 S16'
_cell_volume   943.65091032
_cell_formula_units_Z   16
loop_
 _symmetry_equiv_pos_site_id
 _symmetry_equiv_pos_as_xyz
  1  'x, y, z'
loop_
 _atom_site_type_symbol
 _atom_site_label
 _atom_site_symmetry_multiplicity
 _atom_site_fract_x
 _atom_site_fract_y
 _atom_site_fract_z
 _atom_site_occupancy
  As  As0  1  0.86926200  0.45244100  0.31489000  1
  As  As1  1  0.36632000  0.66072600  0.36634100  1
  As  As2  1  0.13368000  0.16072600  0.36634100  1
  As  As3  1  0.65110700  0.16686000  0.84827600  1
  As  As4  1  0.54415600  0.68091400  0.08784700  1
  As  As5  1  0.95584400  0.18091400  0.08784700  1
  As  As6  1  0.86632000  0.83927400  0.63365900  1
  As  As7  1  0.13073800  0.54755900  0.68511000  1
  As  As8  1  0.15110700  0.33314000  0.15172400  1
  As  As9  1  0.63368000  0.33927400  0.63365900  1
  As  As10  1  0.63073800  0.95244100  0.31489000  1
  As  As11  1  0.04415600  0.81908600  0.91215300  1
  As  As12  1  0.34889300  0.83314000  0.15172400  1
  As  As13  1  0.36926200  0.04755900  0.68511000  1
  As  As14  1  0.84889300  0.66686000  0.84827600  1
  As  As15  1  0.45584400  0.31908600  0.91215300  1
  S  S16  1  0.47574200  0.49891800  0.25087800  1
  S  S17  1  0.44802500  0.03981700  0.19812600  1
  S  S18  1  0.47592000  0.21503400  0.53693800  1
  S  S19  1  0.97592000  0.28496600  0.46306200  1
  S  S20  1  0.94802500  0.46018300  0.80187400  1
  S  S21  1  0.05197500  0.53981700  0.19812600  1
  S  S22  1  0.28802700  0.19346600  0.83010300  1
  S  S23  1  0.52425800  0.50108200  0.74912200  1
  S  S24  1  0.02425800  0.99891800  0.25087800  1
  S  S25  1  0.21197300  0.69346600  0.83010300  1
  S  S26  1  0.52408000  0.78496600  0.46306200  1
  S  S27  1  0.02408000  0.71503400  0.53693800  1
  S  S28  1  0.97574200  0.00108200  0.74912200  1
  S  S29  1  0.55197500  0.96018300  0.80187400  1
  S  S30  1  0.71197300  0.80653400  0.16989700  1
  S  S31  1  0.78802700  0.30653400  0.16989700  1
