# generated using pymatgen
data_Na2Si2O5
_symmetry_space_group_name_H-M   'P 1'
_cell_length_a   12.18879400
_cell_length_b   4.89442900
_cell_length_c   9.75100088
_cell_angle_alpha   60.44448754
_cell_angle_beta   90.00000000
_cell_angle_gamma   90.00000000
_symmetry_Int_Tables_number   1
_chemical_formula_structural   Na2Si2O5
_chemical_formula_sum   'Na8 Si8 O20'
_cell_volume   506.02317595
_cell_formula_units_Z   4
loop_
 _symmetry_equiv_pos_site_id
 _symmetry_equiv_pos_as_xyz
  1  'x, y, z'
loop_
 _atom_site_type_symbol
 _atom_site_label
 _atom_site_symmetry_multiplicity
 _atom_site_fract_x
 _atom_site_fract_y
 _atom_site_fract_z
 _atom_site_occupancy
  Na  Na0  1  0.99716600  0.61239100  0.63026100  1
  Na  Na1  1  0.03781300  0.88571200  0.88053300  1
  Na  Na2  1  0.50283400  0.61239100  0.13026100  1
  Na  Na3  1  0.49716600  0.38760900  0.86973900  1
  Na  Na4  1  0.46218700  0.88571200  0.38053300  1
  Na  Na5  1  0.53781300  0.11428800  0.61946700  1
  Na  Na6  1  0.00283400  0.38760900  0.36973900  1
  Na  Na7  1  0.96218700  0.11428800  0.11946700  1
  Si  Si8  1  0.17885500  0.98040700  0.32392400  1
  Si  Si9  1  0.69731900  0.64325700  0.55045600  1
  Si  Si10  1  0.80268100  0.64325700  0.05045600  1
  Si  Si11  1  0.30268100  0.35674300  0.44954400  1
  Si  Si12  1  0.82114500  0.01959300  0.67607600  1
  Si  Si13  1  0.67885500  0.01959300  0.17607600  1
  Si  Si14  1  0.32114500  0.98040700  0.82392400  1
  Si  Si15  1  0.19731900  0.35674300  0.94954400  1
  O  O16  1  0.70335400  0.72947200  0.13825100  1
  O  O17  1  0.55345600  0.12557700  0.13530500  1
  O  O18  1  0.05345600  0.87442300  0.36469500  1
  O  O19  1  0.44654400  0.87442300  0.86469500  1
  O  O20  1  0.22819100  0.70828700  0.92551400  1
  O  O21  1  0.07545100  0.36077300  0.88682200  1
  O  O22  1  0.29074200  0.10668500  0.63845600  1
  O  O23  1  0.27180900  0.70828700  0.42551400  1
  O  O24  1  0.70925800  0.89331500  0.36154400  1
  O  O25  1  0.92454900  0.63922700  0.11317800  1
  O  O26  1  0.77180900  0.29171300  0.07448600  1
  O  O27  1  0.57545100  0.63922700  0.61317800  1
  O  O28  1  0.42454900  0.36077300  0.38682200  1
  O  O29  1  0.79074200  0.89331500  0.86154400  1
  O  O30  1  0.20335400  0.27052800  0.36174900  1
  O  O31  1  0.20925800  0.10668500  0.13845600  1
  O  O32  1  0.72819100  0.29171300  0.57448600  1
  O  O33  1  0.29664600  0.27052800  0.86174900  1
  O  O34  1  0.94654400  0.12557700  0.63530500  1
  O  O35  1  0.79664600  0.72947200  0.63825100  1
