# generated using pymatgen
data_K2ReCl5O
_symmetry_space_group_name_H-M   'P 1'
_cell_length_a   6.96726100
_cell_length_b   10.18461700
_cell_length_c   13.54697000
_cell_angle_alpha   90.00000000
_cell_angle_beta   90.00000000
_cell_angle_gamma   90.00000000
_symmetry_Int_Tables_number   1
_chemical_formula_structural   K2ReCl5O
_chemical_formula_sum   'K8 Re4 Cl20 O4'
_cell_volume   961.27788394
_cell_formula_units_Z   4
loop_
 _symmetry_equiv_pos_site_id
 _symmetry_equiv_pos_as_xyz
  1  'x, y, z'
loop_
 _atom_site_type_symbol
 _atom_site_label
 _atom_site_symmetry_multiplicity
 _atom_site_fract_x
 _atom_site_fract_y
 _atom_site_fract_z
 _atom_site_occupancy
  K  K0  1  0.81971000  0.99873100  0.36034600  1
  K  K1  1  0.18029000  0.49873100  0.63965400  1
  K  K2  1  0.31971000  0.00126900  0.13965400  1
  K  K3  1  0.68029000  0.99873100  0.86034600  1
  K  K4  1  0.31971000  0.49873100  0.13965400  1
  K  K5  1  0.68029000  0.50126900  0.86034600  1
  K  K6  1  0.81971000  0.50126900  0.36034600  1
  K  K7  1  0.18029000  0.00126900  0.63965400  1
  Re  Re8  1  0.82382900  0.75000000  0.09778300  1
  Re  Re9  1  0.17617100  0.25000000  0.90221700  1
  Re  Re10  1  0.32382900  0.25000000  0.40221700  1
  Re  Re11  1  0.67617100  0.75000000  0.59778300  1
  Cl  Cl12  1  0.30428000  0.01551000  0.38912000  1
  Cl  Cl13  1  0.69572000  0.98449000  0.61088000  1
  Cl  Cl14  1  0.19572000  0.48449000  0.88912000  1
  Cl  Cl15  1  0.19572000  0.01551000  0.88912000  1
  Cl  Cl16  1  0.43217800  0.75000000  0.72198400  1
  Cl  Cl17  1  0.09876000  0.25000000  0.25536700  1
  Cl  Cl18  1  0.80428000  0.51551000  0.11088000  1
  Cl  Cl19  1  0.06782200  0.75000000  0.22198400  1
  Cl  Cl20  1  0.80428000  0.98449000  0.11088000  1
  Cl  Cl21  1  0.03077200  0.25000000  0.49585400  1
  Cl  Cl22  1  0.46922800  0.25000000  0.99585400  1
  Cl  Cl23  1  0.96922800  0.75000000  0.50414600  1
  Cl  Cl24  1  0.90124000  0.75000000  0.74463300  1
  Cl  Cl25  1  0.40124000  0.25000000  0.75536700  1
  Cl  Cl26  1  0.53077200  0.75000000  0.00414600  1
  Cl  Cl27  1  0.59876000  0.75000000  0.24463300  1
  Cl  Cl28  1  0.56782200  0.25000000  0.27801600  1
  Cl  Cl29  1  0.93217800  0.25000000  0.77801600  1
  Cl  Cl30  1  0.69572000  0.51551000  0.61088000  1
  Cl  Cl31  1  0.30428000  0.48449000  0.38912000  1
  O  O32  1  0.02602400  0.25000000  0.00067700  1
  O  O33  1  0.47397600  0.25000000  0.50067700  1
  O  O34  1  0.52602400  0.75000000  0.49932300  1
  O  O35  1  0.97397600  0.75000000  0.99932300  1
