# generated using pymatgen
data_SrGaBO4
_symmetry_space_group_name_H-M   'P 1'
_cell_length_a   5.87872900
_cell_length_b   8.99893300
_cell_length_c   15.58093000
_cell_angle_alpha   90.00000000
_cell_angle_beta   90.00000000
_cell_angle_gamma   90.00000000
_symmetry_Int_Tables_number   1
_chemical_formula_structural   SrGaBO4
_chemical_formula_sum   'Sr8 Ga8 B8 O32'
_cell_volume   824.26685234
_cell_formula_units_Z   8
loop_
 _symmetry_equiv_pos_site_id
 _symmetry_equiv_pos_as_xyz
  1  'x, y, z'
loop_
 _atom_site_type_symbol
 _atom_site_label
 _atom_site_symmetry_multiplicity
 _atom_site_fract_x
 _atom_site_fract_y
 _atom_site_fract_z
 _atom_site_occupancy
  Sr  Sr0  1  0.39208800  0.88426300  0.64998800  1
  Sr  Sr1  1  0.60791200  0.38426300  0.14998800  1
  Sr  Sr2  1  0.60791200  0.11573700  0.35001200  1
  Sr  Sr3  1  0.89208800  0.88426300  0.85001200  1
  Sr  Sr4  1  0.10791200  0.38426300  0.35001200  1
  Sr  Sr5  1  0.39208800  0.61573700  0.85001200  1
  Sr  Sr6  1  0.89208800  0.61573700  0.64998800  1
  Sr  Sr7  1  0.10791200  0.11573700  0.14998800  1
  Ga  Ga8  1  0.36753700  0.76071800  0.05053100  1
  Ga  Ga9  1  0.13246300  0.23928200  0.55053100  1
  Ga  Ga10  1  0.86753700  0.73928200  0.05053100  1
  Ga  Ga11  1  0.63246300  0.23928200  0.94946900  1
  Ga  Ga12  1  0.63246300  0.26071800  0.55053100  1
  Ga  Ga13  1  0.86753700  0.76071800  0.44946900  1
  Ga  Ga14  1  0.36753700  0.73928200  0.44946900  1
  Ga  Ga15  1  0.13246300  0.26071800  0.94946900  1
  B  B16  1  0.12828300  0.51914400  0.14323000  1
  B  B17  1  0.37171700  0.01914400  0.85677000  1
  B  B18  1  0.87171700  0.48085600  0.85677000  1
  B  B19  1  0.87171700  0.01914400  0.64323000  1
  B  B20  1  0.62828300  0.51914400  0.35677000  1
  B  B21  1  0.12828300  0.98085600  0.35677000  1
  B  B22  1  0.62828300  0.98085600  0.14323000  1
  B  B23  1  0.37171700  0.48085600  0.64323000  1
  O  O24  1  0.58566100  0.07154100  0.88188500  1
  O  O25  1  0.91433900  0.92845900  0.38188500  1
  O  O26  1  0.32794200  0.90508700  0.37760400  1
  O  O27  1  0.35697900  0.61056000  0.68928300  1
  O  O28  1  0.58566100  0.42845900  0.61811500  1
  O  O29  1  0.67205800  0.09491300  0.62239600  1
  O  O30  1  0.61547100  0.77466700  0.51976800  1
  O  O31  1  0.64302100  0.11056000  0.18928300  1
  O  O32  1  0.17205800  0.40508700  0.62239600  1
  O  O33  1  0.11547100  0.72533300  0.51976800  1
  O  O34  1  0.91433900  0.57154100  0.11811500  1
  O  O35  1  0.88452900  0.22533300  0.01976800  1
  O  O36  1  0.11547100  0.77466700  0.98023200  1
  O  O37  1  0.88452900  0.27466700  0.48023200  1
  O  O38  1  0.85697900  0.88944000  0.68928300  1
  O  O39  1  0.41433900  0.57154100  0.38188500  1
  O  O40  1  0.35697900  0.88944000  0.81071700  1
  O  O41  1  0.14302100  0.11056000  0.31071700  1
  O  O42  1  0.38452900  0.22533300  0.48023200  1
  O  O43  1  0.08566100  0.42845900  0.88188500  1
  O  O44  1  0.17205800  0.09491300  0.87760400  1
  O  O45  1  0.82794200  0.90508700  0.12239600  1
  O  O46  1  0.67205800  0.40508700  0.87760400  1
  O  O47  1  0.85697900  0.61056000  0.81071700  1
  O  O48  1  0.14302100  0.38944000  0.18928300  1
  O  O49  1  0.61547100  0.72533300  0.98023200  1
  O  O50  1  0.08566100  0.07154100  0.61811500  1
  O  O51  1  0.64302100  0.38944000  0.31071700  1
  O  O52  1  0.82794200  0.59491300  0.37760400  1
  O  O53  1  0.32794200  0.59491300  0.12239600  1
  O  O54  1  0.41433900  0.92845900  0.11811500  1
  O  O55  1  0.38452900  0.27466700  0.01976800  1
