# generated using pymatgen
data_CaSO4
_symmetry_space_group_name_H-M   'P 1'
_cell_length_a   7.05079338
_cell_length_b   7.05079338
_cell_length_c   6.35805900
_cell_angle_alpha   90.00000000
_cell_angle_beta   90.00000000
_cell_angle_gamma   119.99999414
_symmetry_Int_Tables_number   1
_chemical_formula_structural   CaSO4
_chemical_formula_sum   'Ca3 S3 O12'
_cell_volume   273.73553978
_cell_formula_units_Z   3
loop_
 _symmetry_equiv_pos_site_id
 _symmetry_equiv_pos_as_xyz
  1  'x, y, z'
loop_
 _atom_site_type_symbol
 _atom_site_label
 _atom_site_symmetry_multiplicity
 _atom_site_fract_x
 _atom_site_fract_y
 _atom_site_fract_z
 _atom_site_occupancy
  Ca  Ca0  1  0.50000000  0.50000000  0.16666700  1
  Ca  Ca1  1  0.50000000  0.00000000  0.50000000  1
  Ca  Ca2  1  0.00000000  0.50000000  0.83333300  1
  S  S3  1  0.50000000  0.00000000  0.00000000  1
  S  S4  1  0.50000000  0.50000000  0.66666700  1
  S  S5  1  0.00000000  0.50000000  0.33333300  1
  O  O6  1  0.13551000  0.68879500  0.47404300  1
  O  O7  1  0.31120500  0.44671500  0.80737600  1
  O  O8  1  0.68879500  0.55328500  0.80737600  1
  O  O9  1  0.44671500  0.13551000  0.14070900  1
  O  O10  1  0.55328500  0.86449000  0.14070900  1
  O  O11  1  0.86449000  0.31120500  0.47404300  1
  O  O12  1  0.55328500  0.68879500  0.52595700  1
  O  O13  1  0.68879500  0.13551000  0.85929100  1
  O  O14  1  0.86449000  0.55328500  0.19262400  1
  O  O15  1  0.13551000  0.44671500  0.19262400  1
  O  O16  1  0.31120500  0.86449000  0.85929100  1
  O  O17  1  0.44671500  0.31120500  0.52595700  1
