# generated using pymatgen
data_Cs3ZnI4NO3
_symmetry_space_group_name_H-M   'P 1'
_cell_length_a   10.36779300
_cell_length_b   11.83910600
_cell_length_c   14.63894000
_cell_angle_alpha   90.00000000
_cell_angle_beta   90.00000000
_cell_angle_gamma   90.00000000
_symmetry_Int_Tables_number   1
_chemical_formula_structural   Cs3ZnI4NO3
_chemical_formula_sum   'Cs12 Zn4 I16 N4 O12'
_cell_volume   1796.86255046
_cell_formula_units_Z   4
loop_
 _symmetry_equiv_pos_site_id
 _symmetry_equiv_pos_as_xyz
  1  'x, y, z'
loop_
 _atom_site_type_symbol
 _atom_site_label
 _atom_site_symmetry_multiplicity
 _atom_site_fract_x
 _atom_site_fract_y
 _atom_site_fract_z
 _atom_site_occupancy
  Cs  Cs0  1  0.59966000  0.01221100  0.68098200  1
  Cs  Cs1  1  0.90034000  0.51221100  0.18098200  1
  Cs  Cs2  1  0.59966000  0.48778900  0.68098200  1
  Cs  Cs3  1  0.90034000  0.98778900  0.18098200  1
  Cs  Cs4  1  0.42600100  0.75000000  0.05389600  1
  Cs  Cs5  1  0.57399900  0.25000000  0.94610400  1
  Cs  Cs6  1  0.07399900  0.25000000  0.55389600  1
  Cs  Cs7  1  0.92600100  0.75000000  0.44610400  1
  Cs  Cs8  1  0.40034000  0.98778900  0.31901800  1
  Cs  Cs9  1  0.09966000  0.01221100  0.81901800  1
  Cs  Cs10  1  0.09966000  0.48778900  0.81901800  1
  Cs  Cs11  1  0.40034000  0.51221100  0.31901800  1
  Zn  Zn12  1  0.32485200  0.75000000  0.59903300  1
  Zn  Zn13  1  0.67514800  0.25000000  0.40096700  1
  Zn  Zn14  1  0.82485200  0.75000000  0.90096700  1
  Zn  Zn15  1  0.17514800  0.25000000  0.09903300  1
  I  I16  1  0.80106800  0.06340600  0.44365000  1
  I  I17  1  0.46019100  0.25000000  0.50019500  1
  I  I18  1  0.96019100  0.25000000  0.99980500  1
  I  I19  1  0.19893200  0.56340600  0.55635000  1
  I  I20  1  0.37496400  0.75000000  0.77557500  1
  I  I21  1  0.03980900  0.75000000  0.00019500  1
  I  I22  1  0.53980900  0.75000000  0.49980500  1
  I  I23  1  0.30106800  0.06340600  0.05635000  1
  I  I24  1  0.69893200  0.93659400  0.94365000  1
  I  I25  1  0.80106800  0.43659400  0.44365000  1
  I  I26  1  0.62503600  0.25000000  0.22442500  1
  I  I27  1  0.69893200  0.56340600  0.94365000  1
  I  I28  1  0.87496400  0.75000000  0.72442500  1
  I  I29  1  0.30106800  0.43659400  0.05635000  1
  I  I30  1  0.19893200  0.93659400  0.55635000  1
  I  I31  1  0.12503600  0.25000000  0.27557500  1
  N  N32  1  0.17669600  0.75000000  0.27203400  1
  N  N33  1  0.67669600  0.75000000  0.22796600  1
  N  N34  1  0.32330400  0.25000000  0.77203400  1
  N  N35  1  0.82330400  0.25000000  0.72796600  1
  O  O36  1  0.38060300  0.34310000  0.78644400  1
  O  O37  1  0.11939700  0.65690000  0.28644400  1
  O  O38  1  0.61939700  0.84310000  0.21355600  1
  O  O39  1  0.70659800  0.25000000  0.75525500  1
  O  O40  1  0.20659800  0.25000000  0.74474500  1
  O  O41  1  0.88060300  0.15690000  0.71355600  1
  O  O42  1  0.79340200  0.75000000  0.25525500  1
  O  O43  1  0.29340200  0.75000000  0.24474500  1
  O  O44  1  0.61939700  0.65690000  0.21355600  1
  O  O45  1  0.11939700  0.84310000  0.28644400  1
  O  O46  1  0.88060300  0.34310000  0.71355600  1
  O  O47  1  0.38060300  0.15690000  0.78644400  1
