# generated using pymatgen
data_UTl2(TeO4)2
_symmetry_space_group_name_H-M   'P 1'
_cell_length_a   7.59127700
_cell_length_b   8.18817315
_cell_length_c   9.14551398
_cell_angle_alpha   92.89596878
_cell_angle_beta   107.95298445
_cell_angle_gamma   108.53444371
_symmetry_Int_Tables_number   1
_chemical_formula_structural   UTl2(TeO4)2
_chemical_formula_sum   'U2 Tl4 Te4 O16'
_cell_volume   505.74721035
_cell_formula_units_Z   2
loop_
 _symmetry_equiv_pos_site_id
 _symmetry_equiv_pos_as_xyz
  1  'x, y, z'
loop_
 _atom_site_type_symbol
 _atom_site_label
 _atom_site_symmetry_multiplicity
 _atom_site_fract_x
 _atom_site_fract_y
 _atom_site_fract_z
 _atom_site_occupancy
  U  U0  1  0.11218900  0.94017600  0.71438600  1
  U  U1  1  0.88781100  0.05982400  0.28561400  1
  Tl  Tl2  1  0.03174100  0.41787300  0.68599000  1
  Tl  Tl3  1  0.29676600  0.42518500  0.09613400  1
  Tl  Tl4  1  0.70323400  0.57481500  0.90386600  1
  Tl  Tl5  1  0.96825900  0.58212700  0.31401000  1
  Te  Te6  1  0.39450900  0.28860300  0.48776000  1
  Te  Te7  1  0.60549100  0.71139700  0.51224000  1
  Te  Te8  1  0.66301200  0.09819700  0.86847400  1
  Te  Te9  1  0.33698800  0.90180300  0.13152600  1
  O  O10  1  0.58325300  0.89192400  0.11945500  1
  O  O11  1  0.41674700  0.10807600  0.88054500  1
  O  O12  1  0.42221800  0.49495100  0.61412100  1
  O  O13  1  0.21724600  0.80486600  0.62323900  1
  O  O14  1  0.18161600  0.29408600  0.30983600  1
  O  O15  1  0.99177600  0.91802500  0.19923500  1
  O  O16  1  0.57778200  0.50504900  0.38587900  1
  O  O17  1  0.16420500  0.78673400  0.92877900  1
  O  O18  1  0.83579500  0.21326600  0.07122100  1
  O  O19  1  0.29271000  0.70954200  0.23797300  1
  O  O20  1  0.81838400  0.70591400  0.69016400  1
  O  O21  1  0.70729000  0.29045800  0.76202700  1
  O  O22  1  0.17236800  0.13865400  0.54855800  1
  O  O23  1  0.00822400  0.08197500  0.80076500  1
  O  O24  1  0.78275400  0.19513400  0.37676100  1
  O  O25  1  0.82763200  0.86134600  0.45144200  1
