# generated using pymatgen
data_ReO2F3
_symmetry_space_group_name_H-M   'P 1'
_cell_length_a   5.09844200
_cell_length_b   5.72555400
_cell_length_c   13.08906591
_cell_angle_alpha   80.44793982
_cell_angle_beta   90.00000000
_cell_angle_gamma   90.00000000
_symmetry_Int_Tables_number   1
_chemical_formula_structural   ReO2F3
_chemical_formula_sum   'Re4 O8 F12'
_cell_volume   376.79065790
_cell_formula_units_Z   4
loop_
 _symmetry_equiv_pos_site_id
 _symmetry_equiv_pos_as_xyz
  1  'x, y, z'
loop_
 _atom_site_type_symbol
 _atom_site_label
 _atom_site_symmetry_multiplicity
 _atom_site_fract_x
 _atom_site_fract_y
 _atom_site_fract_z
 _atom_site_occupancy
  Re  Re0  1  0.70969500  0.67565800  0.13715300  1
  Re  Re1  1  0.20969500  0.32434200  0.36284700  1
  Re  Re2  1  0.79030500  0.67565800  0.63715300  1
  Re  Re3  1  0.29030500  0.32434200  0.86284700  1
  O  O4  1  0.43258300  0.83101300  0.09767300  1
  O  O5  1  0.56741700  0.16898700  0.90232700  1
  O  O6  1  0.59165000  0.74395100  0.53175600  1
  O  O7  1  0.06741700  0.83101300  0.59767300  1
  O  O8  1  0.90835000  0.74395100  0.03175600  1
  O  O9  1  0.93258300  0.16898700  0.40232700  1
  O  O10  1  0.09165000  0.25604900  0.96824400  1
  O  O11  1  0.40835000  0.25604900  0.46824400  1
  F  F12  1  0.65524100  0.88520000  0.71846100  1
  F  F13  1  0.98669900  0.53870000  0.78132300  1
  F  F14  1  0.84475900  0.88520000  0.21846100  1
  F  F15  1  0.10372700  0.62185800  0.38917500  1
  F  F16  1  0.01330100  0.46130000  0.21867700  1
  F  F17  1  0.34475900  0.11480000  0.28153900  1
  F  F18  1  0.48669900  0.46130000  0.71867700  1
  F  F19  1  0.89627300  0.37814200  0.61082500  1
  F  F20  1  0.51330100  0.53870000  0.28132300  1
  F  F21  1  0.15524100  0.11480000  0.78153900  1
  F  F22  1  0.39627300  0.62185800  0.88917500  1
  F  F23  1  0.60372700  0.37814200  0.11082500  1
