# generated using pymatgen
data_Cd(IO3)2
_symmetry_space_group_name_H-M   'P 1'
_cell_length_a   5.59748900
_cell_length_b   11.34823700
_cell_length_c   17.87955900
_cell_angle_alpha   90.00000000
_cell_angle_beta   90.00000000
_cell_angle_gamma   90.00000000
_symmetry_Int_Tables_number   1
_chemical_formula_structural   Cd(IO3)2
_chemical_formula_sum   'Cd8 I16 O48'
_cell_volume   1135.73876313
_cell_formula_units_Z   8
loop_
 _symmetry_equiv_pos_site_id
 _symmetry_equiv_pos_as_xyz
  1  'x, y, z'
loop_
 _atom_site_type_symbol
 _atom_site_label
 _atom_site_symmetry_multiplicity
 _atom_site_fract_x
 _atom_site_fract_y
 _atom_site_fract_z
 _atom_site_occupancy
  Cd  Cd0  1  0.27336600  0.63208300  0.11149100  1
  Cd  Cd1  1  0.21966900  0.84915700  0.94070300  1
  Cd  Cd2  1  0.78033100  0.34915700  0.05929700  1
  Cd  Cd3  1  0.72663400  0.63208300  0.61149100  1
  Cd  Cd4  1  0.27336600  0.13208300  0.38850900  1
  Cd  Cd5  1  0.72663400  0.13208300  0.88850900  1
  Cd  Cd6  1  0.78033100  0.84915700  0.44070300  1
  Cd  Cd7  1  0.21966900  0.34915700  0.55929700  1
  I  I8  1  0.27170200  0.37629100  0.19720100  1
  I  I9  1  0.32067300  0.36323400  0.89078400  1
  I  I10  1  0.78532300  0.60706200  0.96990100  1
  I  I11  1  0.19771800  0.62118500  0.77671600  1
  I  I12  1  0.67932700  0.86323400  0.10921600  1
  I  I13  1  0.72829800  0.37629100  0.69720100  1
  I  I14  1  0.72829800  0.87629100  0.80279900  1
  I  I15  1  0.78532300  0.10706200  0.53009900  1
  I  I16  1  0.19771800  0.12118500  0.72328400  1
  I  I17  1  0.21467700  0.60706200  0.46990100  1
  I  I18  1  0.80228200  0.12118500  0.22328400  1
  I  I19  1  0.32067300  0.86323400  0.60921600  1
  I  I20  1  0.27170200  0.87629100  0.30279900  1
  I  I21  1  0.80228200  0.62118500  0.27671600  1
  I  I22  1  0.67932700  0.36323400  0.39078400  1
  I  I23  1  0.21467700  0.10706200  0.03009900  1
  O  O24  1  0.48519800  0.79506800  0.85025200  1
  O  O25  1  0.11196300  0.43413400  0.11369800  1
  O  O26  1  0.57688200  0.51837800  0.71101700  1
  O  O27  1  0.46020900  0.80148900  0.52337700  1
  O  O28  1  0.98948200  0.69100100  0.35107900  1
  O  O29  1  0.57688200  0.01837800  0.78898300  1
  O  O30  1  0.96490700  0.69318500  0.51545400  1
  O  O31  1  0.93775600  0.46535700  0.95803000  1
  O  O32  1  0.98948200  0.19100100  0.14892100  1
  O  O33  1  0.51480200  0.79506800  0.35025200  1
  O  O34  1  0.01051800  0.19100100  0.64892100  1
  O  O35  1  0.46438000  0.29016000  0.32658300  1
  O  O36  1  0.93775600  0.96535700  0.54197000  1
  O  O37  1  0.53979100  0.80148900  0.02337600  1
  O  O38  1  0.96033500  0.18347800  0.30425800  1
  O  O39  1  0.88803700  0.93413400  0.88630200  1
  O  O40  1  0.03966500  0.18347800  0.80425800  1
  O  O41  1  0.46438000  0.79016000  0.17341700  1
  O  O42  1  0.03966500  0.68347800  0.69574200  1
  O  O43  1  0.96033500  0.68347800  0.19574200  1
  O  O44  1  0.44379900  0.51298200  0.89073200  1
  O  O45  1  0.53562000  0.29016000  0.82658300  1
  O  O46  1  0.53562000  0.79016000  0.67341700  1
  O  O47  1  0.62561000  0.05334400  0.44588600  1
  O  O48  1  0.07715300  0.47001200  0.77917800  1
  O  O49  1  0.55620100  0.01298200  0.10926800  1
  O  O50  1  0.55620100  0.51298200  0.39073200  1
  O  O51  1  0.44379900  0.01298200  0.60926800  1
  O  O52  1  0.62561000  0.55334400  0.05411400  1
  O  O53  1  0.37439000  0.55334400  0.55411400  1
  O  O54  1  0.01051800  0.69100100  0.85107900  1
  O  O55  1  0.11196300  0.93413400  0.38630200  1
  O  O56  1  0.96490700  0.19318500  0.98454600  1
  O  O57  1  0.03509300  0.19318500  0.48454600  1
  O  O58  1  0.37439000  0.05334400  0.94588600  1
  O  O59  1  0.92284700  0.47001200  0.27917800  1
  O  O60  1  0.03509300  0.69318500  0.01545400  1
  O  O61  1  0.06224400  0.96535700  0.04197000  1
  O  O62  1  0.07715300  0.97001200  0.72082200  1
  O  O63  1  0.42311800  0.01837800  0.28898300  1
  O  O64  1  0.42311800  0.51837800  0.21101700  1
  O  O65  1  0.92284700  0.97001200  0.22082200  1
  O  O66  1  0.48519800  0.29506800  0.64974800  1
  O  O67  1  0.53979100  0.30148900  0.47662300  1
  O  O68  1  0.51480200  0.29506800  0.14974800  1
  O  O69  1  0.88803700  0.43413400  0.61369800  1
  O  O70  1  0.46020900  0.30148900  0.97662300  1
  O  O71  1  0.06224400  0.46535700  0.45803000  1
