# generated using pymatgen
data_Cu(IO3)2
_symmetry_space_group_name_H-M   'P 1'
_cell_length_a   6.34412800
_cell_length_b   5.10454400
_cell_length_c   8.36550492
_cell_angle_alpha   87.70655781
_cell_angle_beta   90.00000000
_cell_angle_gamma   90.00000000
_symmetry_Int_Tables_number   1
_chemical_formula_structural   Cu(IO3)2
_chemical_formula_sum   'Cu2 I4 O12'
_cell_volume   270.69051001
_cell_formula_units_Z   2
loop_
 _symmetry_equiv_pos_site_id
 _symmetry_equiv_pos_as_xyz
  1  'x, y, z'
loop_
 _atom_site_type_symbol
 _atom_site_label
 _atom_site_symmetry_multiplicity
 _atom_site_fract_x
 _atom_site_fract_y
 _atom_site_fract_z
 _atom_site_occupancy
  Cu  Cu0  1  0.50000000  0.50000000  0.50000000  1
  Cu  Cu1  1  0.00000000  0.50000000  0.50000000  1
  I  I2  1  0.25000000  0.46665600  0.15834300  1
  I  I3  1  0.75000000  0.96129900  0.24195500  1
  I  I4  1  0.25000000  0.03870100  0.75804500  1
  I  I5  1  0.75000000  0.53334400  0.84165700  1
  O  O6  1  0.03001800  0.26378800  0.69077300  1
  O  O7  1  0.96998200  0.73621200  0.30922700  1
  O  O8  1  0.75000000  0.63447400  0.61686700  1
  O  O9  1  0.25000000  0.36552600  0.38313300  1
  O  O10  1  0.75000000  0.19064000  0.40022900  1
  O  O11  1  0.53402700  0.74710100  0.90077500  1
  O  O12  1  0.53001800  0.73621200  0.30922700  1
  O  O13  1  0.96597300  0.74710100  0.90077500  1
  O  O14  1  0.46597300  0.25289900  0.09922500  1
  O  O15  1  0.03402700  0.25289900  0.09922500  1
  O  O16  1  0.46998200  0.26378800  0.69077300  1
  O  O17  1  0.25000000  0.80936000  0.59977100  1
