# generated using pymatgen
data_MnF2
_symmetry_space_group_name_H-M   'P 1'
_cell_length_a   5.01881300
_cell_length_b   5.46316700
_cell_length_c   5.93736800
_cell_angle_alpha   90.00000000
_cell_angle_beta   90.00000000
_cell_angle_gamma   90.00000000
_symmetry_Int_Tables_number   1
_chemical_formula_structural   MnF2
_chemical_formula_sum   'Mn4 F8'
_cell_volume   162.79439876
_cell_formula_units_Z   4
loop_
 _symmetry_equiv_pos_site_id
 _symmetry_equiv_pos_as_xyz
  1  'x, y, z'
loop_
 _atom_site_type_symbol
 _atom_site_label
 _atom_site_symmetry_multiplicity
 _atom_site_fract_x
 _atom_site_fract_y
 _atom_site_fract_z
 _atom_site_occupancy
  Mn  Mn0  1  0.50000000  0.75000000  0.66798900  1
  Mn  Mn1  1  0.00000000  0.25000000  0.83201100  1
  Mn  Mn2  1  0.50000000  0.25000000  0.33201100  1
  Mn  Mn3  1  0.00000000  0.75000000  0.16798900  1
  F  F4  1  0.72650900  0.07977200  0.60908600  1
  F  F5  1  0.22650900  0.92022800  0.89091400  1
  F  F6  1  0.77349100  0.57977200  0.89091400  1
  F  F7  1  0.27349100  0.42022800  0.60908600  1
  F  F8  1  0.72650900  0.57977200  0.39091400  1
  F  F9  1  0.22650900  0.42022800  0.10908600  1
  F  F10  1  0.77349100  0.07977200  0.10908600  1
  F  F11  1  0.27349100  0.92022800  0.39091400  1
