# generated using pymatgen
data_ZrO2
_symmetry_space_group_name_H-M   'P 1'
_cell_length_a   5.13195700
_cell_length_b   5.15922000
_cell_length_c   5.34938900
_cell_angle_alpha   90.00000000
_cell_angle_beta   90.00000000
_cell_angle_gamma   90.00000000
_symmetry_Int_Tables_number   1
_chemical_formula_structural   ZrO2
_chemical_formula_sum   'Zr4 O8'
_cell_volume   141.63521190
_cell_formula_units_Z   4
loop_
 _symmetry_equiv_pos_site_id
 _symmetry_equiv_pos_as_xyz
  1  'x, y, z'
loop_
 _atom_site_type_symbol
 _atom_site_label
 _atom_site_symmetry_multiplicity
 _atom_site_fract_x
 _atom_site_fract_y
 _atom_site_fract_z
 _atom_site_occupancy
  Zr  Zr0  1  0.73367200  0.74854400  0.03042200  1
  Zr  Zr1  1  0.26632800  0.74854400  0.53042200  1
  Zr  Zr2  1  0.26632800  0.24854400  0.96957800  1
  Zr  Zr3  1  0.73367200  0.24854400  0.46957800  1
  O  O4  1  0.46355000  0.50156400  0.22901400  1
  O  O5  1  0.93308000  0.60589200  0.36396000  1
  O  O6  1  0.06692000  0.60589200  0.86396000  1
  O  O7  1  0.53645000  0.50156400  0.72901400  1
  O  O8  1  0.93308000  0.10589200  0.13604000  1
  O  O9  1  0.53645000  0.00156400  0.77098600  1
  O  O10  1  0.06692000  0.10589200  0.63604000  1
  O  O11  1  0.46355000  0.00156400  0.27098600  1
