# generated using pymatgen
data_RbNbAsClO5
_symmetry_space_group_name_H-M   'P 1'
_cell_length_a   6.78440300
_cell_length_b   6.78440300
_cell_length_c   7.88618900
_cell_angle_alpha   90.00000000
_cell_angle_beta   90.00000000
_cell_angle_gamma   90.00000000
_symmetry_Int_Tables_number   1
_chemical_formula_structural   RbNbAsClO5
_chemical_formula_sum   'Rb2 Nb2 As2 Cl2 O10'
_cell_volume   362.98648570
_cell_formula_units_Z   2
loop_
 _symmetry_equiv_pos_site_id
 _symmetry_equiv_pos_as_xyz
  1  'x, y, z'
loop_
 _atom_site_type_symbol
 _atom_site_label
 _atom_site_symmetry_multiplicity
 _atom_site_fract_x
 _atom_site_fract_y
 _atom_site_fract_z
 _atom_site_occupancy
  Rb  Rb0  1  0.50000000  0.50000000  0.50000000  1
  Rb  Rb1  1  0.00000000  0.00000000  0.50000000  1
  Nb  Nb2  1  0.50000000  0.00000000  0.89903400  1
  Nb  Nb3  1  0.00000000  0.50000000  0.10096600  1
  As  As4  1  0.00000000  0.00000000  0.00000000  1
  As  As5  1  0.50000000  0.50000000  0.00000000  1
  Cl  Cl6  1  0.00000000  0.50000000  0.44287800  1
  Cl  Cl7  1  0.50000000  0.00000000  0.55712200  1
  O  O8  1  0.00000000  0.80229300  0.13624600  1
  O  O9  1  0.50000000  0.69770700  0.86375400  1
  O  O10  1  0.00000000  0.19770700  0.13624600  1
  O  O11  1  0.69770700  0.50000000  0.13624600  1
  O  O12  1  0.19770700  0.00000000  0.86375400  1
  O  O13  1  0.80229300  0.00000000  0.86375400  1
  O  O14  1  0.50000000  0.30229300  0.86375400  1
  O  O15  1  0.30229300  0.50000000  0.13624600  1
  O  O16  1  0.00000000  0.50000000  0.87978700  1
  O  O17  1  0.50000000  0.00000000  0.12021300  1
