# generated using pymatgen
data_SiO2
_symmetry_space_group_name_H-M   'P 1'
_cell_length_a   5.10302000
_cell_length_b   14.02524000
_cell_length_c   17.65539049
_cell_angle_alpha   74.22143911
_cell_angle_beta   90.00000000
_cell_angle_gamma   90.00000000
_symmetry_Int_Tables_number   1
_chemical_formula_structural   SiO2
_chemical_formula_sum   'Si24 O48'
_cell_volume   1216.00210040
_cell_formula_units_Z   24
loop_
 _symmetry_equiv_pos_site_id
 _symmetry_equiv_pos_as_xyz
  1  'x, y, z'
loop_
 _atom_site_type_symbol
 _atom_site_label
 _atom_site_symmetry_multiplicity
 _atom_site_fract_x
 _atom_site_fract_y
 _atom_site_fract_z
 _atom_site_occupancy
  Si  Si0  1  0.63745400  0.98855800  0.30527100  1
  Si  Si1  1  0.80092900  0.18940500  0.84547800  1
  Si  Si2  1  0.71804600  0.30704400  0.16498900  1
  Si  Si3  1  0.90819300  0.50920300  0.69708600  1
  Si  Si4  1  0.30092900  0.81059500  0.65452200  1
  Si  Si5  1  0.13745400  0.01144200  0.19472900  1
  Si  Si6  1  0.28195400  0.69295600  0.83501100  1
  Si  Si7  1  0.09180700  0.49079700  0.30291400  1
  Si  Si8  1  0.68378300  0.73069400  0.08966200  1
  Si  Si9  1  0.18378300  0.26930600  0.41033800  1
  Si  Si10  1  0.59180700  0.50920300  0.19708600  1
  Si  Si11  1  0.81621700  0.73069400  0.58966200  1
  Si  Si12  1  0.78195400  0.30704400  0.66498900  1
  Si  Si13  1  0.29447400  0.23257600  0.59496700  1
  Si  Si14  1  0.31621700  0.26930600  0.91033800  1
  Si  Si15  1  0.69907100  0.18940500  0.34547800  1
  Si  Si16  1  0.70552600  0.76742400  0.40503300  1
  Si  Si17  1  0.20552600  0.23257600  0.09496700  1
  Si  Si18  1  0.79447400  0.76742400  0.90503300  1
  Si  Si19  1  0.86254600  0.98855800  0.80527100  1
  Si  Si20  1  0.21804600  0.69295600  0.33501100  1
  Si  Si21  1  0.36254600  0.01144200  0.69472900  1
  Si  Si22  1  0.19907100  0.81059500  0.15452200  1
  Si  Si23  1  0.40819300  0.49079700  0.80291400  1
  O  O24  1  0.14376300  0.38608700  0.36719300  1
  O  O25  1  0.01716500  0.24875700  0.63481700  1
  O  O26  1  0.21684500  0.74750400  0.74304800  1
  O  O27  1  0.08955600  0.22394100  0.86572400  1
  O  O28  1  0.70964200  0.49483500  0.77174500  1
  O  O29  1  0.69934800  0.07169000  0.35151600  1
  O  O30  1  0.20964200  0.50516500  0.72825500  1
  O  O31  1  0.61478400  0.88213400  0.37037700  1
  O  O32  1  0.73574400  0.74245000  0.49933700  1
  O  O33  1  0.98226700  0.30572500  0.11396100  1
  O  O34  1  0.85623700  0.61391300  0.63280700  1
  O  O35  1  0.86532500  0.42162900  0.65413200  1
  O  O36  1  0.01773300  0.69427500  0.88603900  1
  O  O37  1  0.29035800  0.50516500  0.22825500  1
  O  O38  1  0.63467500  0.42162900  0.15413200  1
  O  O39  1  0.26425600  0.25755000  0.50066300  1
  O  O40  1  0.98283500  0.75124300  0.36518300  1
  O  O41  1  0.63765700  0.98426500  0.74143600  1
  O  O42  1  0.79035800  0.49483500  0.27174500  1
  O  O43  1  0.41044400  0.22394100  0.36572400  1
  O  O44  1  0.19934800  0.92831000  0.14848400  1
  O  O45  1  0.78315500  0.25249600  0.25695200  1
  O  O46  1  0.51773300  0.30572500  0.61396100  1
  O  O47  1  0.80065200  0.07169000  0.85151600  1
  O  O48  1  0.48226700  0.69427500  0.38603900  1
  O  O49  1  0.91044400  0.77605900  0.13427600  1
  O  O50  1  0.76425600  0.74245000  0.99933700  1
  O  O51  1  0.13765700  0.01573500  0.75856400  1
  O  O52  1  0.35623700  0.38608700  0.86719300  1
  O  O53  1  0.58803700  0.20933300  0.90797700  1
  O  O54  1  0.36532500  0.57837100  0.84586800  1
  O  O55  1  0.51716500  0.75124300  0.86518300  1
  O  O56  1  0.11478400  0.11786600  0.12962300  1
  O  O57  1  0.91196300  0.20933300  0.40797700  1
  O  O58  1  0.48283500  0.24875700  0.13481700  1
  O  O59  1  0.38521600  0.11786600  0.62962300  1
  O  O60  1  0.30065200  0.92831000  0.64848400  1
  O  O61  1  0.58955600  0.77605900  0.63427600  1
  O  O62  1  0.88521600  0.88213400  0.87037700  1
  O  O63  1  0.13467500  0.57837100  0.34586800  1
  O  O64  1  0.08803700  0.79066700  0.59202300  1
  O  O65  1  0.71684500  0.25249600  0.75695200  1
  O  O66  1  0.23574400  0.25755000  0.00066300  1
  O  O67  1  0.41196300  0.79066700  0.09202300  1
  O  O68  1  0.64376300  0.61391300  0.13280700  1
  O  O69  1  0.28315500  0.74750400  0.24304800  1
  O  O70  1  0.36234300  0.01573500  0.25856400  1
  O  O71  1  0.86234300  0.98426500  0.24143600  1
