# generated using pymatgen
data_KUP3O11
_symmetry_space_group_name_H-M   'P 1'
_cell_length_a   15.35773200
_cell_length_b   8.60006800
_cell_length_c   15.05504560
_cell_angle_alpha   88.11804042
_cell_angle_beta   90.00000000
_cell_angle_gamma   90.00000000
_symmetry_Int_Tables_number   1
_chemical_formula_structural   KUP3O11
_chemical_formula_sum   'K8 U8 P24 O88'
_cell_volume   1987.36083143
_cell_formula_units_Z   8
loop_
 _symmetry_equiv_pos_site_id
 _symmetry_equiv_pos_as_xyz
  1  'x, y, z'
loop_
 _atom_site_type_symbol
 _atom_site_label
 _atom_site_symmetry_multiplicity
 _atom_site_fract_x
 _atom_site_fract_y
 _atom_site_fract_z
 _atom_site_occupancy
  K  K0  1  0.25000000  0.15982700  0.76250400  1
  K  K1  1  0.75000000  0.38516800  0.18802900  1
  K  K2  1  0.75000000  0.17943100  0.72583200  1
  K  K3  1  0.25000000  0.82056900  0.27416800  1
  K  K4  1  0.25000000  0.61483200  0.81197100  1
  K  K5  1  0.25000000  0.31182700  0.32318800  1
  K  K6  1  0.75000000  0.84017300  0.23749600  1
  K  K7  1  0.75000000  0.68817300  0.67681200  1
  U  U8  1  0.50573900  0.41296300  0.74054900  1
  U  U9  1  0.25000000  0.35054100  0.03607700  1
  U  U10  1  0.75000000  0.64945900  0.96392300  1
  U  U11  1  0.00573900  0.58703700  0.25945100  1
  U  U12  1  0.49426100  0.58703700  0.25945100  1
  U  U13  1  0.99426100  0.41296300  0.74054900  1
  U  U14  1  0.75000000  0.09160100  0.44887200  1
  U  U15  1  0.25000000  0.90839900  0.55112800  1
  P  P16  1  0.52670900  0.21347000  0.39786600  1
  P  P17  1  0.25000000  0.92255600  0.01923700  1
  P  P18  1  0.47329100  0.78653000  0.60213400  1
  P  P19  1  0.98089500  0.75772600  0.88930400  1
  P  P20  1  0.60514500  0.74074800  0.45808200  1
  P  P21  1  0.89255900  0.30354600  0.96397300  1
  P  P22  1  0.60744100  0.30354600  0.96397300  1
  P  P23  1  0.10514500  0.25925200  0.54191800  1
  P  P24  1  0.89485500  0.74074800  0.45808200  1
  P  P25  1  0.44285000  0.02277200  0.25661600  1
  P  P26  1  0.97329100  0.21347000  0.39786600  1
  P  P27  1  0.02670900  0.78653000  0.60213400  1
  P  P28  1  0.75000000  0.07744400  0.98076300  1
  P  P29  1  0.55715000  0.97722800  0.74338400  1
  P  P30  1  0.10744100  0.69645400  0.03602700  1
  P  P31  1  0.05715000  0.02277200  0.25661600  1
  P  P32  1  0.75000000  0.51767800  0.44837100  1
  P  P33  1  0.25000000  0.48232200  0.55162900  1
  P  P34  1  0.39255900  0.69645400  0.03602700  1
  P  P35  1  0.51910500  0.75772600  0.88930400  1
  P  P36  1  0.48089500  0.24227400  0.11069600  1
  P  P37  1  0.01910500  0.24227400  0.11069600  1
  P  P38  1  0.94285000  0.97722800  0.74338400  1
  P  P39  1  0.39485500  0.25925200  0.54191800  1
  O  O40  1  0.16824400  0.39623200  0.50259300  1
  O  O41  1  0.33175600  0.39623200  0.50259300  1
  O  O42  1  0.53356200  0.67631200  0.40259900  1
  O  O43  1  0.39533300  0.36205300  0.77256200  1
  O  O44  1  0.66073500  0.86897400  0.41775400  1
  O  O45  1  0.88212900  0.45823400  0.71036500  1
  O  O46  1  0.44569400  0.79426300  0.96154200  1
  O  O47  1  0.75000000  0.68996700  0.08143100  1
  O  O48  1  0.55430600  0.20573700  0.03845800  1
  O  O49  1  0.65893200  0.42925900  0.00772200  1
  O  O50  1  0.25000000  0.90074900  0.92182100  1
  O  O51  1  0.10400600  0.26942700  0.06371400  1
  O  O52  1  0.96524300  0.37093300  0.35304200  1
  O  O53  1  0.89971700  0.16269600  0.45807000  1
  O  O54  1  0.34106800  0.57074100  0.99227800  1
  O  O55  1  0.11787100  0.54176600  0.28963500  1
  O  O56  1  0.83926500  0.86897400  0.41775400  1
  O  O57  1  0.10466700  0.36205300  0.77256200  1
  O  O58  1  0.38212900  0.54176600  0.28963500  1
  O  O59  1  0.75000000  0.09925100  0.07817900  1
  O  O60  1  0.93474900  0.80039900  0.54987800  1
  O  O61  1  0.25000000  0.08049900  0.05941700  1
  O  O62  1  0.14299700  0.09671200  0.27006800  1
  O  O63  1  0.53475700  0.37093300  0.35304200  1
  O  O64  1  0.75000000  0.35431300  0.48878000  1
  O  O65  1  0.75000000  0.14026800  0.32996000  1
  O  O66  1  0.56525100  0.80039900  0.54987800  1
  O  O67  1  0.44829800  0.84754100  0.26046300  1
  O  O68  1  0.25000000  0.41353100  0.14945900  1
  O  O69  1  0.48658900  0.63712100  0.82731300  1
  O  O70  1  0.01586500  0.91892300  0.67383800  1
  O  O71  1  0.33926500  0.13102600  0.58224600  1
  O  O72  1  0.60400600  0.73057300  0.93628600  1
  O  O73  1  0.25000000  0.96506100  0.43435200  1
  O  O74  1  0.05170200  0.84754100  0.26046300  1
  O  O75  1  0.84106800  0.42925900  0.00772200  1
  O  O76  1  0.94569400  0.20573700  0.03845800  1
  O  O77  1  0.05430600  0.79426300  0.96154200  1
  O  O78  1  0.61787100  0.45823400  0.71036500  1
  O  O79  1  0.25000000  0.64568700  0.51122000  1
  O  O80  1  0.75000000  0.54696600  0.35089400  1
  O  O81  1  0.96643800  0.67631200  0.40259900  1
  O  O82  1  0.75000000  0.91950100  0.94058300  1
  O  O83  1  0.33018200  0.83146800  0.07061700  1
  O  O84  1  0.16981800  0.83146800  0.07061700  1
  O  O85  1  0.39599400  0.26942700  0.06371400  1
  O  O86  1  0.35700300  0.09671200  0.27006800  1
  O  O87  1  0.98477200  0.92589700  0.83891700  1
  O  O88  1  0.48477200  0.07410300  0.16108300  1
  O  O89  1  0.89533300  0.63794700  0.22743800  1
  O  O90  1  0.83175600  0.60376800  0.49740700  1
  O  O91  1  0.54902000  0.34913800  0.88799600  1
  O  O92  1  0.03356200  0.32368800  0.59740100  1
  O  O93  1  0.83018200  0.16853200  0.92938300  1
  O  O94  1  0.46524300  0.62906700  0.64695800  1
  O  O95  1  0.75000000  0.03493900  0.56564800  1
  O  O96  1  0.10028300  0.83730400  0.54193000  1
  O  O97  1  0.46643800  0.32368800  0.59740100  1
  O  O98  1  0.48413500  0.91892300  0.67383800  1
  O  O99  1  0.15893200  0.57074100  0.99227800  1
  O  O100  1  0.85700300  0.90328800  0.72993200  1
  O  O101  1  0.25000000  0.31003300  0.91856900  1
  O  O102  1  0.01522800  0.07410300  0.16108300  1
  O  O103  1  0.55170200  0.15245900  0.73953700  1
  O  O104  1  0.98413500  0.08107700  0.32616200  1
  O  O105  1  0.89599400  0.73057300  0.93628600  1
  O  O106  1  0.04902000  0.65086200  0.11200400  1
  O  O107  1  0.66824400  0.60376800  0.49740700  1
  O  O108  1  0.51341100  0.36287900  0.17268700  1
  O  O109  1  0.03475700  0.62906700  0.64695800  1
  O  O110  1  0.98658900  0.36287900  0.17268700  1
  O  O111  1  0.51586500  0.08107700  0.32616200  1
  O  O112  1  0.94829800  0.15245900  0.73953700  1
  O  O113  1  0.01341100  0.63712100  0.82731300  1
  O  O114  1  0.64299700  0.90328800  0.72993200  1
  O  O115  1  0.43474900  0.19960100  0.45012200  1
  O  O116  1  0.39971700  0.83730400  0.54193000  1
  O  O117  1  0.45098000  0.65086200  0.11200400  1
  O  O118  1  0.66981800  0.16853200  0.92938300  1
  O  O119  1  0.25000000  0.85973200  0.67004000  1
  O  O120  1  0.16073500  0.13102600  0.58224600  1
  O  O121  1  0.06525100  0.19960100  0.45012200  1
  O  O122  1  0.95098000  0.34913800  0.88799600  1
  O  O123  1  0.25000000  0.45303400  0.64910600  1
  O  O124  1  0.60466700  0.63794700  0.22743800  1
  O  O125  1  0.51522800  0.92589700  0.83891700  1
  O  O126  1  0.60028300  0.16269600  0.45807000  1
  O  O127  1  0.75000000  0.58646900  0.85054100  1
