# generated using pymatgen
data_NaSiBO4
_symmetry_space_group_name_H-M   'P 1'
_cell_length_a   14.03676518
_cell_length_b   14.03676518
_cell_length_c   7.77947300
_cell_angle_alpha   90.00000000
_cell_angle_beta   90.00000000
_cell_angle_gamma   119.99999615
_symmetry_Int_Tables_number   1
_chemical_formula_structural   NaSiBO4
_chemical_formula_sum   'Na18 Si18 B18 O72'
_cell_volume   1327.43998716
_cell_formula_units_Z   18
loop_
 _symmetry_equiv_pos_site_id
 _symmetry_equiv_pos_as_xyz
  1  'x, y, z'
loop_
 _atom_site_type_symbol
 _atom_site_label
 _atom_site_symmetry_multiplicity
 _atom_site_fract_x
 _atom_site_fract_y
 _atom_site_fract_z
 _atom_site_occupancy
  Na  Na0  1  0.31142900  0.32577200  0.50270900  1
  Na  Na1  1  0.01434300  0.68857100  0.50270900  1
  Na  Na2  1  0.98729000  0.65403800  0.06722400  1
  Na  Na3  1  0.66674900  0.01271000  0.06722400  1
  Na  Na4  1  0.33325100  0.98729000  0.56722400  1
  Na  Na5  1  0.66666700  0.33333300  0.52318600  1
  Na  Na6  1  0.00000000  0.00000000  0.05285500  1
  Na  Na7  1  0.98565700  0.31142900  0.00270900  1
  Na  Na8  1  0.34596200  0.33325100  0.06722400  1
  Na  Na9  1  0.66666700  0.33333300  0.02500100  1
  Na  Na10  1  0.33333300  0.66666700  0.52500100  1
  Na  Na11  1  0.67422800  0.98565700  0.50270900  1
  Na  Na12  1  0.00000000  0.00000000  0.55285500  1
  Na  Na13  1  0.33333300  0.66666700  0.02318600  1
  Na  Na14  1  0.68857100  0.67422800  0.00270900  1
  Na  Na15  1  0.32577200  0.01434300  0.00270900  1
  Na  Na16  1  0.01271000  0.34596200  0.56722400  1
  Na  Na17  1  0.65403800  0.66674900  0.56722400  1
  Si  Si18  1  0.55108700  0.76323700  0.23967600  1
  Si  Si19  1  0.23676300  0.78785000  0.23967600  1
  Si  Si20  1  0.87877900  0.78248800  0.33389800  1
  Si  Si21  1  0.21215000  0.44891300  0.23967600  1
  Si  Si22  1  0.43139400  0.54558200  0.74598200  1
  Si  Si23  1  0.54558200  0.11418800  0.24598200  1
  Si  Si24  1  0.78785000  0.55108700  0.73967600  1
  Si  Si25  1  0.90370900  0.12122100  0.33389800  1
  Si  Si26  1  0.44891300  0.23676300  0.73967600  1
  Si  Si27  1  0.11418800  0.56860600  0.74598200  1
  Si  Si28  1  0.09629100  0.87877900  0.83389800  1
  Si  Si29  1  0.88581200  0.43139400  0.24598200  1
  Si  Si30  1  0.12122100  0.21751200  0.83389800  1
  Si  Si31  1  0.78248800  0.90370900  0.83389800  1
  Si  Si32  1  0.56860600  0.45441800  0.24598200  1
  Si  Si33  1  0.21751200  0.09629100  0.33389800  1
  Si  Si34  1  0.45441800  0.88581200  0.74598200  1
  Si  Si35  1  0.76323700  0.21215000  0.73967600  1
  B  B36  1  0.56682200  0.45357200  0.86513100  1
  B  B37  1  0.55243900  0.76596600  0.86453100  1
  B  B38  1  0.21857900  0.09856100  0.71030200  1
  B  B39  1  0.09856100  0.87998200  0.21030200  1
  B  B40  1  0.87998200  0.78142100  0.71030200  1
  B  B41  1  0.54642800  0.11325000  0.86513100  1
  B  B42  1  0.78647300  0.55243900  0.36453100  1
  B  B43  1  0.12001800  0.21857900  0.21030200  1
  B  B44  1  0.11325000  0.56682200  0.36513100  1
  B  B45  1  0.45357200  0.88675000  0.36513100  1
  B  B46  1  0.23403400  0.78647300  0.86453100  1
  B  B47  1  0.76596600  0.21352700  0.36453100  1
  B  B48  1  0.90143900  0.12001800  0.71030200  1
  B  B49  1  0.21352700  0.44756100  0.86453100  1
  B  B50  1  0.88675000  0.43317800  0.86513100  1
  B  B51  1  0.44756100  0.23403400  0.36453100  1
  B  B52  1  0.78142100  0.90143900  0.21030200  1
  B  B53  1  0.43317800  0.54642800  0.36513100  1
  O  O54  1  0.65883800  0.45651500  0.76753900  1
  O  O55  1  0.34061500  0.86907200  0.36372400  1
  O  O56  1  0.20259700  0.86466100  0.78783100  1
  O  O57  1  0.87699700  0.86837900  0.81237400  1
  O  O58  1  0.51222700  0.11806500  0.04540100  1
  O  O59  1  0.53899700  0.53437500  0.79222500  1
  O  O60  1  0.47154300  0.34061500  0.86372400  1
  O  O61  1  0.84359200  0.78749500  0.53260600  1
  O  O62  1  0.53437500  0.99537900  0.29222500  1
  O  O63  1  0.86964800  0.19760400  0.78499900  1
  O  O64  1  0.05609600  0.84359200  0.03260600  1
  O  O65  1  0.65938500  0.13092800  0.86372400  1
  O  O66  1  0.27594900  0.82360800  0.04133000  1
  O  O67  1  0.00462100  0.53899700  0.29222500  1
  O  O68  1  0.60583800  0.48777300  0.04540100  1
  O  O69  1  0.86176700  0.32665200  0.36856800  1
  O  O70  1  0.53455900  0.32433100  0.26327500  1
  O  O71  1  0.20014300  0.19351600  0.70706300  1
  O  O72  1  0.78749500  0.94390400  0.03260600  1
  O  O73  1  0.00662700  0.20014300  0.20706300  1
  O  O74  1  0.13035200  0.80239600  0.28499900  1
  O  O75  1  0.19760400  0.32795600  0.28499900  1
  O  O76  1  0.94390400  0.15640800  0.53260600  1
  O  O77  1  0.00861800  0.87699700  0.31237400  1
  O  O78  1  0.46100300  0.46562500  0.29222500  1
  O  O79  1  0.17639200  0.45234100  0.04133000  1
  O  O80  1  0.45234100  0.27594900  0.54133000  1
  O  O81  1  0.82360800  0.54765900  0.54133000  1
  O  O82  1  0.78977200  0.46544100  0.26327500  1
  O  O83  1  0.80648400  0.00662700  0.70706300  1
  O  O84  1  0.15640800  0.21250500  0.03260600  1
  O  O85  1  0.80239600  0.67204400  0.78499900  1
  O  O86  1  0.32795600  0.13035200  0.78499900  1
  O  O87  1  0.86837900  0.99138200  0.31237400  1
  O  O88  1  0.21250500  0.05609600  0.53260600  1
  O  O89  1  0.99138200  0.12300300  0.81237400  1
  O  O90  1  0.67204400  0.86964800  0.28499900  1
  O  O91  1  0.13162100  0.00861800  0.81237400  1
  O  O92  1  0.53511500  0.86176700  0.86856800  1
  O  O93  1  0.54348500  0.20232300  0.76753900  1
  O  O94  1  0.19351600  0.99337300  0.20706300  1
  O  O95  1  0.67334800  0.53511500  0.36856800  1
  O  O96  1  0.46562500  0.00462100  0.79222500  1
  O  O97  1  0.79767700  0.34116200  0.76753900  1
  O  O98  1  0.13092800  0.47154300  0.36372400  1
  O  O99  1  0.52845700  0.65938500  0.36372400  1
  O  O100  1  0.48777300  0.88193500  0.54540100  1
  O  O101  1  0.99537900  0.46100300  0.79222500  1
  O  O102  1  0.21022800  0.53455900  0.76327500  1
  O  O103  1  0.66206400  0.79740300  0.78783100  1
  O  O104  1  0.33793600  0.20259700  0.28783100  1
  O  O105  1  0.99337300  0.79985700  0.70706300  1
  O  O106  1  0.32665200  0.46488500  0.86856800  1
  O  O107  1  0.45651500  0.79767700  0.26753900  1
  O  O108  1  0.12300300  0.13162100  0.31237400  1
  O  O109  1  0.34116200  0.54348500  0.26753900  1
  O  O110  1  0.46544100  0.67566900  0.76327500  1
  O  O111  1  0.32433100  0.78977200  0.76327500  1
  O  O112  1  0.20232300  0.65883800  0.26753900  1
  O  O113  1  0.72405100  0.17639200  0.54133000  1
  O  O114  1  0.54765900  0.72405100  0.04133000  1
  O  O115  1  0.39416200  0.51222700  0.54540100  1
  O  O116  1  0.86907200  0.52845700  0.86372400  1
  O  O117  1  0.86466100  0.66206400  0.28783100  1
  O  O118  1  0.67566900  0.21022800  0.26327500  1
  O  O119  1  0.11806500  0.60583800  0.54540100  1
  O  O120  1  0.88193500  0.39416200  0.04540100  1
  O  O121  1  0.79740300  0.13533900  0.28783100  1
  O  O122  1  0.13823300  0.67334800  0.86856800  1
  O  O123  1  0.13533900  0.33793600  0.78783100  1
  O  O124  1  0.46488500  0.13823300  0.36856800  1
  O  O125  1  0.79985700  0.80648400  0.20706300  1
