# generated using pymatgen
data_BaZrF6
_symmetry_space_group_name_H-M   'P 1'
_cell_length_a   9.72083400
_cell_length_b   6.68299400
_cell_length_c   9.33627530
_cell_angle_alpha   52.64771061
_cell_angle_beta   90.00000000
_cell_angle_gamma   90.00000000
_symmetry_Int_Tables_number   1
_chemical_formula_structural   BaZrF6
_chemical_formula_sum   'Ba4 Zr4 F24'
_cell_volume   482.13841079
_cell_formula_units_Z   4
loop_
 _symmetry_equiv_pos_site_id
 _symmetry_equiv_pos_as_xyz
  1  'x, y, z'
loop_
 _atom_site_type_symbol
 _atom_site_label
 _atom_site_symmetry_multiplicity
 _atom_site_fract_x
 _atom_site_fract_y
 _atom_site_fract_z
 _atom_site_occupancy
  Ba  Ba0  1  0.31962600  0.59090800  0.63589100  1
  Ba  Ba1  1  0.18037400  0.59090800  0.13589100  1
  Ba  Ba2  1  0.68037400  0.40909200  0.36410900  1
  Ba  Ba3  1  0.81962600  0.40909200  0.86410900  1
  Zr  Zr4  1  0.46435000  0.11904800  0.13444600  1
  Zr  Zr5  1  0.03565000  0.11904800  0.63444600  1
  Zr  Zr6  1  0.53565000  0.88095200  0.86555400  1
  Zr  Zr7  1  0.96435000  0.88095200  0.36555400  1
  F  F8  1  0.10411900  0.07114000  0.85895800  1
  F  F9  1  0.12297900  0.01689700  0.47095600  1
  F  F10  1  0.46823200  0.55282000  0.11512700  1
  F  F11  1  0.39588100  0.07114000  0.35895800  1
  F  F12  1  0.15203700  0.83460300  0.28941600  1
  F  F13  1  0.53176800  0.44718000  0.88487300  1
  F  F14  1  0.21659400  0.31945400  0.53117300  1
  F  F15  1  0.65203700  0.16539700  0.21058400  1
  F  F16  1  0.03176800  0.55282000  0.61512700  1
  F  F17  1  0.46101700  0.72981600  0.32244000  1
  F  F18  1  0.96101700  0.27018400  0.17756000  1
  F  F19  1  0.87702100  0.98310300  0.52904400  1
  F  F20  1  0.71659400  0.68054600  0.96882700  1
  F  F21  1  0.62297900  0.98310300  0.02904400  1
  F  F22  1  0.89588100  0.92886000  0.14104200  1
  F  F23  1  0.78340600  0.68054600  0.46882700  1
  F  F24  1  0.28340600  0.31945400  0.03117300  1
  F  F25  1  0.37702100  0.01689700  0.97095600  1
  F  F26  1  0.03898300  0.72981600  0.82244000  1
  F  F27  1  0.60411900  0.92886000  0.64104200  1
  F  F28  1  0.34796300  0.83460300  0.78941600  1
  F  F29  1  0.53898300  0.27018400  0.67756000  1
  F  F30  1  0.96823200  0.44718000  0.38487300  1
  F  F31  1  0.84796300  0.16539700  0.71058400  1
