# generated using pymatgen
data_K2OsN3Cl3O5
_symmetry_space_group_name_H-M   'P 1'
_cell_length_a   7.09743800
_cell_length_b   7.71143038
_cell_length_c   10.54125088
_cell_angle_alpha   90.34028801
_cell_angle_beta   101.66922435
_cell_angle_gamma   90.53912736
_symmetry_Int_Tables_number   1
_chemical_formula_structural   K2OsN3Cl3O5
_chemical_formula_sum   'K4 Os2 N6 Cl6 O10'
_cell_volume   564.96990190
_cell_formula_units_Z   2
loop_
 _symmetry_equiv_pos_site_id
 _symmetry_equiv_pos_as_xyz
  1  'x, y, z'
loop_
 _atom_site_type_symbol
 _atom_site_label
 _atom_site_symmetry_multiplicity
 _atom_site_fract_x
 _atom_site_fract_y
 _atom_site_fract_z
 _atom_site_occupancy
  K  K0  1  0.38945300  0.24608100  0.87031100  1
  K  K1  1  0.22967500  0.75180300  0.47237500  1
  K  K2  1  0.61054700  0.75391900  0.12968900  1
  K  K3  1  0.77032500  0.24819700  0.52762500  1
  Os  Os4  1  0.87709700  0.74694700  0.76259200  1
  Os  Os5  1  0.12290300  0.25305300  0.23740800  1
  N  N6  1  0.67968700  0.93313800  0.79420500  1
  N  N7  1  0.01256300  0.24305200  0.07266800  1
  N  N8  1  0.69666600  0.54923200  0.80338400  1
  N  N9  1  0.30333400  0.45076800  0.19661600  1
  N  N10  1  0.98743700  0.75694800  0.92733200  1
  N  N11  1  0.32031300  0.06686200  0.20579500  1
  Cl  Cl12  1  0.28628100  0.26822000  0.45438300  1
  Cl  Cl13  1  0.07883800  0.97362500  0.69919400  1
  Cl  Cl14  1  0.71371900  0.73178000  0.54561700  1
  Cl  Cl15  1  0.90307100  0.46705700  0.29251500  1
  Cl  Cl16  1  0.09692900  0.53294300  0.70748500  1
  Cl  Cl17  1  0.92116200  0.02637500  0.30080600  1
  O  O18  1  0.63898900  0.94544200  0.90473500  1
  O  O19  1  0.36101100  0.05455800  0.09526500  1
  O  O20  1  0.95032100  0.23740500  0.96059400  1
  O  O21  1  0.63185500  0.43484400  0.72137800  1
  O  O22  1  0.34498200  0.45608500  0.08621900  1
  O  O23  1  0.04967900  0.76259500  0.03940600  1
  O  O24  1  0.39540600  0.96591800  0.29323800  1
  O  O25  1  0.65501800  0.54391500  0.91378100  1
  O  O26  1  0.60459400  0.03408200  0.70676200  1
  O  O27  1  0.36814500  0.56515600  0.27862200  1
