# generated using pymatgen
data_Nb2P4O15
_symmetry_space_group_name_H-M   'P 1'
_cell_length_a   6.80660100
_cell_length_b   8.53586239
_cell_length_c   11.22320509
_cell_angle_alpha   74.29747349
_cell_angle_beta   89.70103786
_cell_angle_gamma   89.89119258
_symmetry_Int_Tables_number   1
_chemical_formula_structural   Nb2P4O15
_chemical_formula_sum   'Nb4 P8 O30'
_cell_volume   627.72654588
_cell_formula_units_Z   2
loop_
 _symmetry_equiv_pos_site_id
 _symmetry_equiv_pos_as_xyz
  1  'x, y, z'
loop_
 _atom_site_type_symbol
 _atom_site_label
 _atom_site_symmetry_multiplicity
 _atom_site_fract_x
 _atom_site_fract_y
 _atom_site_fract_z
 _atom_site_occupancy
  Nb  Nb0  1  0.73802500  0.70381600  0.85527200  1
  Nb  Nb1  1  0.26197500  0.29618400  0.14472800  1
  Nb  Nb2  1  0.23370300  0.29359100  0.64774300  1
  Nb  Nb3  1  0.76629700  0.70640900  0.35225700  1
  P  P4  1  0.11306600  0.91346000  0.62287900  1
  P  P5  1  0.43880600  0.68333200  0.60229200  1
  P  P6  1  0.06229200  0.68468200  0.09850300  1
  P  P7  1  0.56119400  0.31666800  0.39770800  1
  P  P8  1  0.61360200  0.08466700  0.87606500  1
  P  P9  1  0.88693400  0.08654000  0.37712100  1
  P  P10  1  0.93770800  0.31531800  0.90149700  1
  P  P11  1  0.38639800  0.91533300  0.12393500  1
  O  O12  1  0.32249400  0.52599400  0.64211200  1
  O  O13  1  0.55657300  0.66177900  0.96796500  1
  O  O14  1  0.03453600  0.33501000  0.54902700  1
  O  O15  1  0.44342700  0.33822100  0.03203500  1
  O  O16  1  0.50926600  0.79487600  0.21274500  1
  O  O17  1  0.44580400  0.29980100  0.51675100  1
  O  O18  1  0.03268600  0.30110200  0.02644800  1
  O  O19  1  0.56512500  0.71042400  0.70665200  1
  O  O20  1  0.91691500  0.71484500  0.19367400  1
  O  O21  1  0.67750600  0.47400600  0.35788800  1
  O  O22  1  0.98820100  0.79095000  0.70924700  1
  O  O23  1  0.49073400  0.20512400  0.78725500  1
  O  O24  1  0.96731400  0.69889800  0.97355200  1
  O  O25  1  0.17703800  0.52767300  0.14638900  1
  O  O26  1  0.82296200  0.47232700  0.85361100  1
  O  O27  1  0.78857400  0.16493200  0.93235700  1
  O  O28  1  0.21142600  0.83506800  0.06764300  1
  O  O29  1  0.00000000  0.00000000  0.50000000  1
  O  O30  1  0.01179900  0.20905000  0.29075300  1
  O  O31  1  0.96546400  0.66499000  0.45097300  1
  O  O32  1  0.70774000  0.95227800  0.82643100  1
  O  O33  1  0.28940600  0.83399300  0.56523700  1
  O  O34  1  0.55419600  0.70019900  0.48324900  1
  O  O35  1  0.43487500  0.28957600  0.29334800  1
  O  O36  1  0.08308500  0.28515500  0.80632600  1
  O  O37  1  0.29226000  0.04772200  0.17356900  1
  O  O38  1  0.20524700  0.04442900  0.67423900  1
  O  O39  1  0.79475300  0.95557100  0.32576100  1
  O  O40  1  0.71059400  0.16600700  0.43476300  1
  O  O41  1  0.50000000  0.00000000  0.00000000  1
