# generated using pymatgen
data_ZnS
_symmetry_space_group_name_H-M   'P 1'
_cell_length_a   3.85172774
_cell_length_b   3.85172774
_cell_length_c   50.41076900
_cell_angle_alpha   90.00000000
_cell_angle_beta   90.00000000
_cell_angle_gamma   119.99999559
_symmetry_Int_Tables_number   1
_chemical_formula_structural   ZnS
_chemical_formula_sum   'Zn16 S16'
_cell_volume   647.68693547
_cell_formula_units_Z   16
loop_
 _symmetry_equiv_pos_site_id
 _symmetry_equiv_pos_as_xyz
  1  'x, y, z'
loop_
 _atom_site_type_symbol
 _atom_site_label
 _atom_site_symmetry_multiplicity
 _atom_site_fract_x
 _atom_site_fract_y
 _atom_site_fract_z
 _atom_site_occupancy
  Zn  Zn0  1  0.33333300  0.66666700  0.56251800  1
  Zn  Zn1  1  0.66666700  0.33333300  0.12501000  1
  Zn  Zn2  1  0.00000000  0.00000000  0.37500900  1
  Zn  Zn3  1  0.33333300  0.66666700  0.06252300  1
  Zn  Zn4  1  0.66666700  0.33333300  0.50000900  1
  Zn  Zn5  1  0.33333300  0.66666700  0.31250300  1
  Zn  Zn6  1  0.66666700  0.33333300  0.25002600  1
  Zn  Zn7  1  0.00000000  0.00000000  0.81250500  1
  Zn  Zn8  1  0.66666700  0.33333300  0.75000700  1
  Zn  Zn9  1  0.00000000  0.00000000  0.18751300  1
  Zn  Zn10  1  0.33333300  0.66666700  0.43752600  1
  Zn  Zn11  1  0.33333300  0.66666700  0.93751300  1
  Zn  Zn12  1  0.00000000  0.00000000  0.62501000  1
  Zn  Zn13  1  0.66666700  0.33333300  0.87502700  1
  Zn  Zn14  1  0.33333300  0.66666700  0.68753100  1
  Zn  Zn15  1  0.00000000  0.00000000  0.00000900  1
  S  S16  1  0.00000000  0.00000000  0.23438700  1
  S  S17  1  0.33333300  0.66666700  0.35931900  1
  S  S18  1  0.66666700  0.33333300  0.29684900  1
  S  S19  1  0.66666700  0.33333300  0.54689500  1
  S  S20  1  0.33333300  0.66666700  0.10935500  1
  S  S21  1  0.66666700  0.33333300  0.79681500  1
  S  S22  1  0.33333300  0.66666700  0.98432100  1
  S  S23  1  0.66666700  0.33333300  0.92185400  1
  S  S24  1  0.00000000  0.00000000  0.85939600  1
  S  S25  1  0.33333300  0.66666700  0.60931900  1
  S  S26  1  0.00000000  0.00000000  0.42189300  1
  S  S27  1  0.33333300  0.66666700  0.73434800  1
  S  S28  1  0.00000000  0.00000000  0.67189400  1
  S  S29  1  0.00000000  0.00000000  0.04689600  1
  S  S30  1  0.66666700  0.33333300  0.17182300  1
  S  S31  1  0.33333300  0.66666700  0.48431900  1
