# generated using pymatgen
data_Sr(PO3)2
_symmetry_space_group_name_H-M   'P 1'
_cell_length_a   11.06983100
_cell_length_b   4.55875000
_cell_length_c   10.51745387
_cell_angle_alpha   88.45999363
_cell_angle_beta   90.00000000
_cell_angle_gamma   90.00000000
_symmetry_Int_Tables_number   1
_chemical_formula_structural   Sr(PO3)2
_chemical_formula_sum   'Sr4 P8 O24'
_cell_volume   530.56731075
_cell_formula_units_Z   4
loop_
 _symmetry_equiv_pos_site_id
 _symmetry_equiv_pos_as_xyz
  1  'x, y, z'
loop_
 _atom_site_type_symbol
 _atom_site_label
 _atom_site_symmetry_multiplicity
 _atom_site_fract_x
 _atom_site_fract_y
 _atom_site_fract_z
 _atom_site_occupancy
  Sr  Sr0  1  0.80738300  0.03167800  0.98534900  1
  Sr  Sr1  1  0.19261700  0.96832200  0.01465100  1
  Sr  Sr2  1  0.69261700  0.03167800  0.48534900  1
  Sr  Sr3  1  0.30738300  0.96832200  0.51465100  1
  P  P4  1  0.34936400  0.43655300  0.79336000  1
  P  P5  1  0.65063600  0.56344700  0.20664000  1
  P  P6  1  0.98671100  0.93089200  0.28355100  1
  P  P7  1  0.01328900  0.06910800  0.71644900  1
  P  P8  1  0.84936400  0.56344700  0.70664000  1
  P  P9  1  0.48671100  0.06910800  0.21644900  1
  P  P10  1  0.51328900  0.93089200  0.78355100  1
  P  P11  1  0.15063600  0.43655300  0.29336000  1
  O  O12  1  0.89070300  0.89679800  0.66923600  1
  O  O13  1  0.48461800  0.04195400  0.35989100  1
  O  O14  1  0.51538200  0.95804600  0.64010900  1
  O  O15  1  0.24944200  0.50063700  0.38655400  1
  O  O16  1  0.01538200  0.04195400  0.85989100  1
  O  O17  1  0.37889800  0.98383200  0.14254500  1
  O  O18  1  0.74944200  0.49936300  0.11344600  1
  O  O19  1  0.02754100  0.60728000  0.33102900  1
  O  O20  1  0.10929700  0.10320200  0.33076400  1
  O  O21  1  0.75055800  0.49936300  0.61344600  1
  O  O22  1  0.32775700  0.46902300  0.65268200  1
  O  O23  1  0.98461800  0.95804600  0.14010900  1
  O  O24  1  0.82775700  0.53097700  0.84731800  1
  O  O25  1  0.62110200  0.01616800  0.85745500  1
  O  O26  1  0.60929700  0.89679800  0.16923600  1
  O  O27  1  0.47245900  0.60728000  0.83102900  1
  O  O28  1  0.87889800  0.01616800  0.35745500  1
  O  O29  1  0.67224300  0.53097700  0.34731800  1
  O  O30  1  0.39070300  0.10320200  0.83076400  1
  O  O31  1  0.97245900  0.39272000  0.66897100  1
  O  O32  1  0.25055800  0.50063700  0.88655400  1
  O  O33  1  0.52754100  0.39272000  0.16897100  1
  O  O34  1  0.12110200  0.98383200  0.64254500  1
  O  O35  1  0.17224300  0.46902300  0.15268200  1
