# generated using pymatgen
data_Na2CuP2O7
_symmetry_space_group_name_H-M   'P 1'
_cell_length_a   13.72007600
_cell_length_b   5.14189400
_cell_length_c   10.11813509
_cell_angle_alpha   62.47583292
_cell_angle_beta   90.00000000
_cell_angle_gamma   90.00000000
_symmetry_Int_Tables_number   1
_chemical_formula_structural   Na2CuP2O7
_chemical_formula_sum   'Na8 Cu4 P8 O28'
_cell_volume   633.01445283
_cell_formula_units_Z   4
loop_
 _symmetry_equiv_pos_site_id
 _symmetry_equiv_pos_as_xyz
  1  'x, y, z'
loop_
 _atom_site_type_symbol
 _atom_site_label
 _atom_site_symmetry_multiplicity
 _atom_site_fract_x
 _atom_site_fract_y
 _atom_site_fract_z
 _atom_site_occupancy
  Na  Na0  1  0.61079700  0.08202400  0.63301600  1
  Na  Na1  1  0.70828200  0.41776100  0.84713000  1
  Na  Na2  1  0.79171800  0.41776100  0.34713000  1
  Na  Na3  1  0.38920300  0.91797600  0.36698400  1
  Na  Na4  1  0.88920300  0.08202400  0.13301600  1
  Na  Na5  1  0.20828200  0.58223900  0.65287000  1
  Na  Na6  1  0.29171800  0.58223900  0.15287000  1
  Na  Na7  1  0.11079700  0.91797600  0.86698400  1
  Cu  Cu8  1  0.84409100  0.05624700  0.73905600  1
  Cu  Cu9  1  0.65590900  0.05624700  0.23905600  1
  Cu  Cu10  1  0.34409100  0.94375300  0.76094400  1
  Cu  Cu11  1  0.15590900  0.94375300  0.26094400  1
  P  P12  1  0.32061600  0.27359500  0.95535700  1
  P  P13  1  0.17938400  0.27359500  0.45535700  1
  P  P14  1  0.96291500  0.52141900  0.77126000  1
  P  P15  1  0.67938400  0.72640500  0.04464300  1
  P  P16  1  0.03708500  0.47858100  0.22874000  1
  P  P17  1  0.82061600  0.72640500  0.54464300  1
  P  P18  1  0.46291500  0.47858100  0.72874000  1
  P  P19  1  0.53708500  0.52141900  0.27126000  1
  O  O20  1  0.27433600  0.14735100  0.85739400  1
  O  O21  1  0.72302600  0.41991700  0.08552200  1
  O  O22  1  0.68476200  0.93099900  0.87926700  1
  O  O23  1  0.06647400  0.41847200  0.78474300  1
  O  O24  1  0.44859100  0.23805900  0.67867700  1
  O  O25  1  0.22566400  0.14735100  0.35739400  1
  O  O26  1  0.55140900  0.76194100  0.32132300  1
  O  O27  1  0.77697400  0.41991700  0.58552200  1
  O  O28  1  0.05140900  0.23805900  0.17867700  1
  O  O29  1  0.72566400  0.85264900  0.14260600  1
  O  O30  1  0.88628500  0.27192300  0.84974300  1
  O  O31  1  0.61371500  0.27192300  0.34974300  1
  O  O32  1  0.38628500  0.72807700  0.65025700  1
  O  O33  1  0.31523800  0.06900100  0.12073300  1
  O  O34  1  0.22302600  0.58008300  0.41447800  1
  O  O35  1  0.43495500  0.32736600  0.90742400  1
  O  O36  1  0.06504500  0.32736600  0.40742400  1
  O  O37  1  0.81523800  0.93099900  0.37926700  1
  O  O38  1  0.11371500  0.72807700  0.15025700  1
  O  O39  1  0.77433600  0.85264900  0.64260600  1
  O  O40  1  0.93495500  0.67263400  0.59257600  1
  O  O41  1  0.94859100  0.76194100  0.82132300  1
  O  O42  1  0.18476200  0.06900100  0.62073300  1
  O  O43  1  0.93352600  0.58152800  0.21525700  1
  O  O44  1  0.27697400  0.58008300  0.91447800  1
  O  O45  1  0.56504500  0.67263400  0.09257600  1
  O  O46  1  0.56647400  0.58152800  0.71525700  1
  O  O47  1  0.43352600  0.41847200  0.28474300  1
