# generated using pymatgen
data_RbCO2
_symmetry_space_group_name_H-M   'P 1'
_cell_length_a   3.69246600
_cell_length_b   6.40392400
_cell_length_c   11.48415100
_cell_angle_alpha   90.00000000
_cell_angle_beta   90.00000000
_cell_angle_gamma   90.00000000
_symmetry_Int_Tables_number   1
_chemical_formula_structural   RbCO2
_chemical_formula_sum   'Rb4 C4 O8'
_cell_volume   271.55735406
_cell_formula_units_Z   4
loop_
 _symmetry_equiv_pos_site_id
 _symmetry_equiv_pos_as_xyz
  1  'x, y, z'
loop_
 _atom_site_type_symbol
 _atom_site_label
 _atom_site_symmetry_multiplicity
 _atom_site_fract_x
 _atom_site_fract_y
 _atom_site_fract_z
 _atom_site_occupancy
  Rb  Rb0  1  0.50000000  0.09448900  0.15189600  1
  Rb  Rb1  1  0.50000000  0.40551100  0.65189600  1
  Rb  Rb2  1  0.50000000  0.90551100  0.84810400  1
  Rb  Rb3  1  0.50000000  0.59448900  0.34810400  1
  C  C4  1  0.00000000  0.06723900  0.44156400  1
  C  C5  1  0.00000000  0.56723900  0.05843600  1
  C  C6  1  0.00000000  0.93276100  0.55843600  1
  C  C7  1  0.00000000  0.43276100  0.94156400  1
  O  O8  1  0.00000000  0.46642800  0.15389500  1
  O  O9  1  0.00000000  0.26438000  0.45233200  1
  O  O10  1  0.00000000  0.23562000  0.95233200  1
  O  O11  1  0.00000000  0.96642800  0.34610500  1
  O  O12  1  0.00000000  0.03357200  0.65389500  1
  O  O13  1  0.00000000  0.53357200  0.84610500  1
  O  O14  1  0.00000000  0.73562000  0.54766800  1
  O  O15  1  0.00000000  0.76438000  0.04766800  1
