# generated using pymatgen
data_CaB4O7
_symmetry_space_group_name_H-M   'P 1'
_cell_length_a   4.23541700
_cell_length_b   4.41472600
_cell_length_c   10.72126300
_cell_angle_alpha   90.00000000
_cell_angle_beta   90.00000000
_cell_angle_gamma   90.00000000
_symmetry_Int_Tables_number   1
_chemical_formula_structural   CaB4O7
_chemical_formula_sum   'Ca2 B8 O14'
_cell_volume   200.46837934
_cell_formula_units_Z   2
loop_
 _symmetry_equiv_pos_site_id
 _symmetry_equiv_pos_as_xyz
  1  'x, y, z'
loop_
 _atom_site_type_symbol
 _atom_site_label
 _atom_site_symmetry_multiplicity
 _atom_site_fract_x
 _atom_site_fract_y
 _atom_site_fract_z
 _atom_site_occupancy
  Ca  Ca0  1  0.58663000  0.81039500  0.50000000  1
  Ca  Ca1  1  0.08663000  0.18960500  0.00000000  1
  B  B2  1  0.61580800  0.17753800  0.74920500  1
  B  B3  1  0.11580800  0.82246200  0.75079500  1
  B  B4  1  0.59130900  0.67296300  0.87930500  1
  B  B5  1  0.09130900  0.32703700  0.62069500  1
  B  B6  1  0.09130900  0.32703700  0.37930500  1
  B  B7  1  0.59130900  0.67296300  0.12069500  1
  B  B8  1  0.11580800  0.82246200  0.24920500  1
  B  B9  1  0.61580800  0.17753800  0.25079500  1
  O  O10  1  0.16717800  0.64662600  0.36110700  1
  O  O11  1  0.66717800  0.35337400  0.86110700  1
  O  O12  1  0.16717800  0.64662600  0.63889300  1
  O  O13  1  0.75304900  0.27344700  0.36601000  1
  O  O14  1  0.75304900  0.27344700  0.63399000  1
  O  O15  1  0.25304900  0.72655300  0.86601000  1
  O  O16  1  0.70118200  0.77833900  0.00000000  1
  O  O17  1  0.20118200  0.22166100  0.50000000  1
  O  O18  1  0.75765000  0.86472400  0.77657200  1
  O  O19  1  0.25765000  0.13527600  0.72342800  1
  O  O20  1  0.25765000  0.13527600  0.27657200  1
  O  O21  1  0.75765000  0.86472400  0.22342800  1
  O  O22  1  0.25304900  0.72655300  0.13399000  1
  O  O23  1  0.66717800  0.35337400  0.13889300  1
