# generated using pymatgen
data_SiO2
_symmetry_space_group_name_H-M   'P 1'
_cell_length_a   8.02228200
_cell_length_b   8.89520000
_cell_length_c   8.89868184
_cell_angle_alpha   89.68458027
_cell_angle_beta   90.00000000
_cell_angle_gamma   90.00000000
_symmetry_Int_Tables_number   1
_chemical_formula_structural   SiO2
_chemical_formula_sum   'Si16 O32'
_cell_volume   634.99855954
_cell_formula_units_Z   16
loop_
 _symmetry_equiv_pos_site_id
 _symmetry_equiv_pos_as_xyz
  1  'x, y, z'
loop_
 _atom_site_type_symbol
 _atom_site_label
 _atom_site_symmetry_multiplicity
 _atom_site_fract_x
 _atom_site_fract_y
 _atom_site_fract_z
 _atom_site_occupancy
  Si  Si0  1  0.12859400  0.83923900  0.35421300  1
  Si  Si1  1  0.62781200  0.89599900  0.59538900  1
  Si  Si2  1  0.14047700  0.40499300  0.09053400  1
  Si  Si3  1  0.87218800  0.89599900  0.09538900  1
  Si  Si4  1  0.87140600  0.16076100  0.64578700  1
  Si  Si5  1  0.64047700  0.59500700  0.40946600  1
  Si  Si6  1  0.85952300  0.59500700  0.90946600  1
  Si  Si7  1  0.60703900  0.34261500  0.84196000  1
  Si  Si8  1  0.37218800  0.10400100  0.40461100  1
  Si  Si9  1  0.12781200  0.10400100  0.90461100  1
  Si  Si10  1  0.39296100  0.65738500  0.15804000  1
  Si  Si11  1  0.35952300  0.40499300  0.59053400  1
  Si  Si12  1  0.89296100  0.34261500  0.34196000  1
  Si  Si13  1  0.37140600  0.83923900  0.85421300  1
  Si  Si14  1  0.62859400  0.16076100  0.14578700  1
  Si  Si15  1  0.10703900  0.65738500  0.65804000  1
  O  O16  1  0.81451500  0.50123300  0.40020000  1
  O  O17  1  0.17755800  0.24923100  0.00358200  1
  O  O18  1  0.68548500  0.50123300  0.90020000  1
  O  O19  1  0.26731100  0.72874500  0.28167400  1
  O  O20  1  0.42784200  0.37234400  0.76077900  1
  O  O21  1  0.76731100  0.27125500  0.21832600  1
  O  O22  1  0.70425900  0.99111700  0.13339100  1
  O  O23  1  0.58205200  0.22548700  0.98032100  1
  O  O24  1  0.20425900  0.00888300  0.36660900  1
  O  O25  1  0.79574100  0.99111700  0.63339100  1
  O  O26  1  0.23268900  0.72874500  0.78167400  1
  O  O27  1  0.96115100  0.84323100  0.25157200  1
  O  O28  1  0.03884900  0.15676900  0.74842800  1
  O  O29  1  0.53884900  0.84323100  0.75157200  1
  O  O30  1  0.31451500  0.49876700  0.09980000  1
  O  O31  1  0.32244200  0.24923100  0.50358200  1
  O  O32  1  0.82244200  0.75076900  0.99641800  1
  O  O33  1  0.18548500  0.49876700  0.59980000  1
  O  O34  1  0.73268900  0.27125500  0.71832600  1
  O  O35  1  0.29574100  0.00888300  0.86660900  1
  O  O36  1  0.08205200  0.77451300  0.51967900  1
  O  O37  1  0.50000000  0.50000000  0.50000000  1
  O  O38  1  0.57215800  0.62765600  0.23922100  1
  O  O39  1  0.07215800  0.37234400  0.26077900  1
  O  O40  1  0.46115100  0.15676900  0.24842800  1
  O  O41  1  0.67755800  0.75076900  0.49641800  1
  O  O42  1  0.41794800  0.77451300  0.01967900  1
  O  O43  1  0.92784200  0.62765600  0.73922100  1
  O  O44  1  0.00000000  0.50000000  0.00000000  1
  O  O45  1  0.00000000  0.00000000  0.00000000  1
  O  O46  1  0.91794800  0.22548700  0.48032100  1
  O  O47  1  0.50000000  0.00000000  0.50000000  1
