# generated using pymatgen
data_NbPO5
_symmetry_space_group_name_H-M   'P 1'
_cell_length_a   5.42506500
_cell_length_b   6.80100000
_cell_length_c   11.47263800
_cell_angle_alpha   90.00000000
_cell_angle_beta   90.00000000
_cell_angle_gamma   90.00000000
_symmetry_Int_Tables_number   1
_chemical_formula_structural   NbPO5
_chemical_formula_sum   'Nb4 P4 O20'
_cell_volume   423.29292653
_cell_formula_units_Z   4
loop_
 _symmetry_equiv_pos_site_id
 _symmetry_equiv_pos_as_xyz
  1  'x, y, z'
loop_
 _atom_site_type_symbol
 _atom_site_label
 _atom_site_symmetry_multiplicity
 _atom_site_fract_x
 _atom_site_fract_y
 _atom_site_fract_z
 _atom_site_occupancy
  Nb  Nb0  1  0.49293000  0.33101100  0.93672500  1
  Nb  Nb1  1  0.99293000  0.83101100  0.56327500  1
  Nb  Nb2  1  0.49293000  0.16898900  0.43672500  1
  Nb  Nb3  1  0.99293000  0.66898900  0.06327500  1
  P  P4  1  0.48213500  0.52800500  0.65366300  1
  P  P5  1  0.48213500  0.97199500  0.15366300  1
  P  P6  1  0.98213500  0.47199500  0.34633700  1
  P  P7  1  0.98213500  0.02800500  0.84633700  1
  O  O8  1  0.23429100  0.86907300  0.13293500  1
  O  O9  1  0.20028000  0.33845500  0.37615400  1
  O  O10  1  0.23429100  0.63092700  0.63293500  1
  O  O11  1  0.99588900  0.96992300  0.71604400  1
  O  O12  1  0.75416300  0.01177300  0.49583200  1
  O  O13  1  0.25416300  0.98822700  0.50416800  1
  O  O14  1  0.70028000  0.83845500  0.12384600  1
  O  O15  1  0.99271200  0.83688100  0.91908200  1
  O  O16  1  0.49588900  0.03007700  0.28395600  1
  O  O17  1  0.73429100  0.36907300  0.36706500  1
  O  O18  1  0.99588900  0.53007700  0.21604400  1
  O  O19  1  0.20028000  0.16154500  0.87615400  1
  O  O20  1  0.99271200  0.66311900  0.41908200  1
  O  O21  1  0.73429100  0.13092700  0.86706500  1
  O  O22  1  0.25416300  0.51177300  0.00416800  1
  O  O23  1  0.70028000  0.66154500  0.62384600  1
  O  O24  1  0.49271200  0.16311900  0.08091800  1
  O  O25  1  0.49588900  0.46992300  0.78395600  1
  O  O26  1  0.49271200  0.33688100  0.58091800  1
  O  O27  1  0.75416300  0.48822700  0.99583200  1
