# generated using pymatgen
data_GdMg(BO2)5
_symmetry_space_group_name_H-M   'P 1'
_cell_length_a   7.65121600
_cell_length_b   8.72523500
_cell_length_c   12.52205126
_cell_angle_alpha   48.82002345
_cell_angle_beta   90.00000000
_cell_angle_gamma   90.00000000
_symmetry_Int_Tables_number   1
_chemical_formula_structural   GdMg(BO2)5
_chemical_formula_sum   'Gd4 Mg4 B20 O40'
_cell_volume   629.17765027
_cell_formula_units_Z   4
loop_
 _symmetry_equiv_pos_site_id
 _symmetry_equiv_pos_as_xyz
  1  'x, y, z'
loop_
 _atom_site_type_symbol
 _atom_site_label
 _atom_site_symmetry_multiplicity
 _atom_site_fract_x
 _atom_site_fract_y
 _atom_site_fract_z
 _atom_site_occupancy
  Gd  Gd0  1  0.68948900  0.94918700  0.23815600  1
  Gd  Gd1  1  0.31051100  0.05081300  0.76184400  1
  Gd  Gd2  1  0.81051100  0.94918700  0.73815600  1
  Gd  Gd3  1  0.18948900  0.05081300  0.26184400  1
  Mg  Mg4  1  0.08978300  0.52187000  0.87369600  1
  Mg  Mg5  1  0.41021700  0.52187000  0.37369600  1
  Mg  Mg6  1  0.91021700  0.47813000  0.12630400  1
  Mg  Mg7  1  0.58978300  0.47813000  0.62630400  1
  B  B8  1  0.09791500  0.84617800  0.99902100  1
  B  B9  1  0.42154200  0.65330400  0.76163900  1
  B  B10  1  0.68796200  0.52001600  0.91259900  1
  B  B11  1  0.17202400  0.90862300  0.60656400  1
  B  B12  1  0.53103300  0.72523100  0.05366200  1
  B  B13  1  0.96896700  0.72523100  0.55366200  1
  B  B14  1  0.07845800  0.65330400  0.26163900  1
  B  B15  1  0.40208500  0.84617800  0.49902100  1
  B  B16  1  0.18796200  0.47998400  0.58740100  1
  B  B17  1  0.82797600  0.09137700  0.39343600  1
  B  B18  1  0.31203800  0.47998400  0.08740100  1
  B  B19  1  0.81203800  0.52001600  0.41259900  1
  B  B20  1  0.67202400  0.09137700  0.89343600  1
  B  B21  1  0.03103300  0.27476900  0.44633800  1
  B  B22  1  0.57845800  0.34669600  0.23836100  1
  B  B23  1  0.46896700  0.27476900  0.94633800  1
  B  B24  1  0.92154200  0.34669600  0.73836100  1
  B  B25  1  0.90208500  0.15382200  0.00097900  1
  B  B26  1  0.59791500  0.15382200  0.50097900  1
  B  B27  1  0.32797600  0.90862300  0.10656400  1
  O  O28  1  0.41419900  0.31674300  0.19302500  1
  O  O29  1  0.84874500  0.55242800  0.63070200  1
  O  O30  1  0.46561400  0.68510700  0.63134200  1
  O  O31  1  0.91419900  0.68325700  0.30697500  1
  O  O32  1  0.03438600  0.68510700  0.13134200  1
  O  O33  1  0.10480500  0.08773500  0.58427200  1
  O  O34  1  0.54460100  0.11613400  0.61966600  1
  O  O35  1  0.96561400  0.31489300  0.86865800  1
  O  O36  1  0.77333100  0.02646000  0.01714900  1
  O  O37  1  0.02767500  0.76461800  0.64744200  1
  O  O38  1  0.37216700  0.67598700  0.00878800  1
  O  O39  1  0.22666900  0.97354000  0.98285100  1
  O  O40  1  0.47232500  0.76461800  0.14744200  1
  O  O41  1  0.45539900  0.88386600  0.38033400  1
  O  O42  1  0.15125500  0.44757200  0.36929800  1
  O  O43  1  0.53438600  0.31489300  0.36865800  1
  O  O44  1  0.04460100  0.88386600  0.88033400  1
  O  O45  1  0.65125500  0.55242800  0.13070200  1
  O  O46  1  0.78578100  0.20315500  0.76530400  1
  O  O47  1  0.39519500  0.08773500  0.08427200  1
  O  O48  1  0.97232500  0.23538200  0.35255800  1
  O  O49  1  0.62783300  0.32401300  0.99121200  1
  O  O50  1  0.15076800  0.42596500  0.07240200  1
  O  O51  1  0.65076800  0.57403500  0.42759800  1
  O  O52  1  0.08580100  0.31674300  0.69302500  1
  O  O53  1  0.12783300  0.67598700  0.50878800  1
  O  O54  1  0.34874500  0.44757200  0.86929800  1
  O  O55  1  0.89519500  0.91226500  0.41572800  1
  O  O56  1  0.95539900  0.11613400  0.11966600  1
  O  O57  1  0.84923200  0.57403500  0.92759800  1
  O  O58  1  0.27333100  0.97354000  0.48285100  1
  O  O59  1  0.58580100  0.68325700  0.80697500  1
  O  O60  1  0.28578100  0.79684500  0.73469600  1
  O  O61  1  0.87216700  0.32401300  0.49121200  1
  O  O62  1  0.72666900  0.02646000  0.51714900  1
  O  O63  1  0.21421900  0.79684500  0.23469600  1
  O  O64  1  0.60480500  0.91226500  0.91572800  1
  O  O65  1  0.52767500  0.23538200  0.85255800  1
  O  O66  1  0.71421900  0.20315500  0.26530400  1
  O  O67  1  0.34923200  0.42596500  0.57240200  1
