# generated using pymatgen
data_CsBa(BO2)3
_symmetry_space_group_name_H-M   'P 1'
_cell_length_a   12.69932966
_cell_length_b   12.69932966
_cell_length_c   7.64950700
_cell_angle_alpha   90.00000000
_cell_angle_beta   90.00000000
_cell_angle_gamma   119.99999824
_symmetry_Int_Tables_number   1
_chemical_formula_structural   CsBa(BO2)3
_chemical_formula_sum   'Cs6 Ba6 B18 O36'
_cell_volume   1068.37982948
_cell_formula_units_Z   6
loop_
 _symmetry_equiv_pos_site_id
 _symmetry_equiv_pos_as_xyz
  1  'x, y, z'
loop_
 _atom_site_type_symbol
 _atom_site_label
 _atom_site_symmetry_multiplicity
 _atom_site_fract_x
 _atom_site_fract_y
 _atom_site_fract_z
 _atom_site_occupancy
  Cs  Cs0  1  0.36337300  0.00000000  0.00000000  1
  Cs  Cs1  1  0.69532500  0.00000000  0.00000000  1
  Cs  Cs2  1  0.30467500  0.30467500  0.00000000  1
  Cs  Cs3  1  0.00000000  0.69532500  0.00000000  1
  Cs  Cs4  1  0.00000000  0.36337300  0.00000000  1
  Cs  Cs5  1  0.63662700  0.63662700  0.00000000  1
  Ba  Ba6  1  0.70219800  0.00000000  0.50000000  1
  Ba  Ba7  1  0.00000000  0.36677200  0.50000000  1
  Ba  Ba8  1  0.36677200  0.00000000  0.50000000  1
  Ba  Ba9  1  0.29780200  0.29780200  0.50000000  1
  Ba  Ba10  1  0.63322800  0.63322800  0.50000000  1
  Ba  Ba11  1  0.00000000  0.70219800  0.50000000  1
  B  B12  1  0.20510800  0.62469800  0.28468000  1
  B  B13  1  0.26632300  0.73035900  0.71438800  1
  B  B14  1  0.95745700  0.08636600  0.71646200  1
  B  B15  1  0.62469800  0.20510800  0.71532000  1
  B  B16  1  0.37530200  0.58041000  0.28468000  1
  B  B17  1  0.46403600  0.73367700  0.71438800  1
  B  B18  1  0.12890800  0.04254300  0.71646200  1
  B  B19  1  0.73035900  0.26632300  0.28561200  1
  B  B20  1  0.26964100  0.53596400  0.71438800  1
  B  B21  1  0.91363400  0.87109200  0.71646200  1
  B  B22  1  0.04254300  0.12890800  0.28353800  1
  B  B23  1  0.58041000  0.37530200  0.71532000  1
  B  B24  1  0.87109200  0.91363400  0.28353800  1
  B  B25  1  0.53596400  0.26964100  0.28561200  1
  B  B26  1  0.79489200  0.41959000  0.71532000  1
  B  B27  1  0.08636600  0.95745700  0.28353800  1
  B  B28  1  0.41959000  0.79489200  0.28468000  1
  B  B29  1  0.73367700  0.46403600  0.28561200  1
  O  O30  1  0.24994400  0.54232600  0.27973300  1
  O  O31  1  0.41738400  0.50334500  0.29552700  1
  O  O32  1  0.87564700  0.95842600  0.72124900  1
  O  O33  1  0.20733800  0.79209900  0.70233900  1
  O  O34  1  0.54232600  0.24994400  0.72026700  1
  O  O35  1  0.49665500  0.91403900  0.29552700  1
  O  O36  1  0.50334500  0.41738400  0.70447300  1
  O  O37  1  0.08596100  0.58261600  0.29552700  1
  O  O38  1  0.12435300  0.08277800  0.27875100  1
  O  O39  1  0.79266200  0.58476100  0.29766100  1
  O  O40  1  0.16118000  0.91318200  0.29524900  1
  O  O41  1  0.60465300  0.39806900  0.28010000  1
  O  O42  1  0.79209900  0.20733800  0.29766100  1
  O  O43  1  0.04157400  0.91722200  0.72124900  1
  O  O44  1  0.79341500  0.39534700  0.28010000  1
  O  O45  1  0.75005600  0.29238200  0.72026700  1
  O  O46  1  0.70761800  0.45767400  0.72026700  1
  O  O47  1  0.08681800  0.24799800  0.29524900  1
  O  O48  1  0.91722200  0.04157400  0.27875100  1
  O  O49  1  0.39806900  0.60465300  0.71990000  1
  O  O50  1  0.60193100  0.20658500  0.28010000  1
  O  O51  1  0.39534700  0.79341500  0.71990000  1
  O  O52  1  0.41523900  0.20790100  0.29766100  1
  O  O53  1  0.58476100  0.79266200  0.70233900  1
  O  O54  1  0.95842600  0.87564700  0.27875100  1
  O  O55  1  0.20790100  0.41523900  0.70233900  1
  O  O56  1  0.58261600  0.08596100  0.70447300  1
  O  O57  1  0.24799800  0.08681800  0.70475100  1
  O  O58  1  0.91403900  0.49665500  0.70447300  1
  O  O59  1  0.20658500  0.60193100  0.71990000  1
  O  O60  1  0.91318200  0.16118000  0.70475100  1
  O  O61  1  0.08277800  0.12435300  0.72124900  1
  O  O62  1  0.45767400  0.70761800  0.27973300  1
  O  O63  1  0.29238200  0.75005600  0.27973300  1
  O  O64  1  0.75200200  0.83882000  0.29524900  1
  O  O65  1  0.83882000  0.75200200  0.70475100  1
