# generated using pymatgen
data_Ca2SiO4
_symmetry_space_group_name_H-M   'P 1'
_cell_length_a   9.85017600
_cell_length_b   8.34972800
_cell_length_c   9.87734362
_cell_angle_alpha   85.17101482
_cell_angle_beta   90.00000000
_cell_angle_gamma   90.00000000
_symmetry_Int_Tables_number   1
_chemical_formula_structural   Ca2SiO4
_chemical_formula_sum   'Ca16 Si8 O32'
_cell_volume   809.49126535
_cell_formula_units_Z   8
loop_
 _symmetry_equiv_pos_site_id
 _symmetry_equiv_pos_as_xyz
  1  'x, y, z'
loop_
 _atom_site_type_symbol
 _atom_site_label
 _atom_site_symmetry_multiplicity
 _atom_site_fract_x
 _atom_site_fract_y
 _atom_site_fract_z
 _atom_site_occupancy
  Ca  Ca0  1  0.93347600  0.09658900  0.21065400  1
  Ca  Ca1  1  0.91804900  0.34004600  0.91353100  1
  Ca  Ca2  1  0.07882600  0.82280300  0.42750100  1
  Ca  Ca3  1  0.28745900  0.37925500  0.92503000  1
  Ca  Ca4  1  0.42117400  0.82280300  0.92750100  1
  Ca  Ca5  1  0.41804900  0.65995400  0.58646900  1
  Ca  Ca6  1  0.92117400  0.17719700  0.57249900  1
  Ca  Ca7  1  0.57882600  0.17719700  0.07249900  1
  Ca  Ca8  1  0.21254100  0.37925500  0.42503000  1
  Ca  Ca9  1  0.56652400  0.09658900  0.71065400  1
  Ca  Ca10  1  0.58195100  0.34004600  0.41353100  1
  Ca  Ca11  1  0.43347600  0.90341100  0.28934600  1
  Ca  Ca12  1  0.78745900  0.62074500  0.57497000  1
  Ca  Ca13  1  0.08195100  0.65995400  0.08646900  1
  Ca  Ca14  1  0.71254100  0.62074500  0.07497000  1
  Ca  Ca15  1  0.06652400  0.90341100  0.78934600  1
  Si  Si16  1  0.07293900  0.54136200  0.69919100  1
  Si  Si17  1  0.57293900  0.45863800  0.80080900  1
  Si  Si18  1  0.70286000  0.97684500  0.42980200  1
  Si  Si19  1  0.79714000  0.97684500  0.92980200  1
  Si  Si20  1  0.42706100  0.54136200  0.19919100  1
  Si  Si21  1  0.20286000  0.02315500  0.07019800  1
  Si  Si22  1  0.29714000  0.02315500  0.57019800  1
  Si  Si23  1  0.92706100  0.45863800  0.30080900  1
  O  O24  1  0.59703600  0.46126600  0.63391700  1
  O  O25  1  0.62005900  0.82109700  0.50174700  1
  O  O26  1  0.69869000  0.13009500  0.52663900  1
  O  O27  1  0.36553000  0.06166000  0.09217400  1
  O  O28  1  0.54743300  0.40869000  0.17537700  1
  O  O29  1  0.86553000  0.93834000  0.40782600  1
  O  O30  1  0.90296400  0.46126600  0.13391700  1
  O  O31  1  0.45256700  0.59131000  0.82462300  1
  O  O32  1  0.63447000  0.93834000  0.90782600  1
  O  O33  1  0.37994100  0.17890300  0.49825300  1
  O  O34  1  0.71508800  0.49438000  0.87844900  1
  O  O35  1  0.95256700  0.40869000  0.67537700  1
  O  O36  1  0.36899800  0.95281400  0.71423200  1
  O  O37  1  0.13447000  0.06166000  0.59217400  1
  O  O38  1  0.19869000  0.86990500  0.97336100  1
  O  O39  1  0.87994100  0.82109700  0.00174700  1
  O  O40  1  0.28491200  0.50562000  0.12155100  1
  O  O41  1  0.50690800  0.28324600  0.85769100  1
  O  O42  1  0.40296400  0.53873400  0.36608300  1
  O  O43  1  0.21508800  0.50562000  0.62155100  1
  O  O44  1  0.04743300  0.59131000  0.32462300  1
  O  O45  1  0.99309200  0.28324600  0.35769100  1
  O  O46  1  0.78491200  0.49438000  0.37844900  1
  O  O47  1  0.13100200  0.95281400  0.21423200  1
  O  O48  1  0.86899800  0.04718600  0.78576800  1
  O  O49  1  0.49309200  0.71675400  0.14230900  1
  O  O50  1  0.63100200  0.04718600  0.28576800  1
  O  O51  1  0.80131000  0.13009500  0.02663900  1
  O  O52  1  0.30131000  0.86990500  0.47336100  1
  O  O53  1  0.00690800  0.71675400  0.64230900  1
  O  O54  1  0.12005900  0.17890300  0.99825300  1
  O  O55  1  0.09703600  0.53873400  0.86608300  1
