# generated using pymatgen
data_RbFeF4
_symmetry_space_group_name_H-M   'P 1'
_cell_length_a   5.45708400
_cell_length_b   5.45708400
_cell_length_c   6.58152400
_cell_angle_alpha   90.00000000
_cell_angle_beta   90.00000000
_cell_angle_gamma   90.00000000
_symmetry_Int_Tables_number   1
_chemical_formula_structural   RbFeF4
_chemical_formula_sum   'Rb2 Fe2 F8'
_cell_volume   195.99624322
_cell_formula_units_Z   2
loop_
 _symmetry_equiv_pos_site_id
 _symmetry_equiv_pos_as_xyz
  1  'x, y, z'
loop_
 _atom_site_type_symbol
 _atom_site_label
 _atom_site_symmetry_multiplicity
 _atom_site_fract_x
 _atom_site_fract_y
 _atom_site_fract_z
 _atom_site_occupancy
  Rb  Rb0  1  0.50000000  0.00000000  0.50000000  1
  Rb  Rb1  1  0.00000000  0.50000000  0.50000000  1
  Fe  Fe2  1  0.50000000  0.50000000  0.00000000  1
  Fe  Fe3  1  0.00000000  0.00000000  0.00000000  1
  F  F4  1  0.50000000  0.50000000  0.29072400  1
  F  F5  1  0.00000000  0.00000000  0.70927600  1
  F  F6  1  0.50000000  0.50000000  0.70927600  1
  F  F7  1  0.00000000  0.00000000  0.29072400  1
  F  F8  1  0.31100600  0.81100600  0.00000000  1
  F  F9  1  0.18899400  0.31100600  0.00000000  1
  F  F10  1  0.81100600  0.68899400  0.00000000  1
  F  F11  1  0.68899400  0.18899400  0.00000000  1
