# generated using pymatgen
data_KNaSiF6
_symmetry_space_group_name_H-M   'P 1'
_cell_length_a   5.54639700
_cell_length_b   9.52080400
_cell_length_c   9.89918300
_cell_angle_alpha   90.00000000
_cell_angle_beta   90.00000000
_cell_angle_gamma   90.00000000
_symmetry_Int_Tables_number   1
_chemical_formula_structural   KNaSiF6
_chemical_formula_sum   'K4 Na4 Si4 F24'
_cell_volume   522.73782893
_cell_formula_units_Z   4
loop_
 _symmetry_equiv_pos_site_id
 _symmetry_equiv_pos_as_xyz
  1  'x, y, z'
loop_
 _atom_site_type_symbol
 _atom_site_label
 _atom_site_symmetry_multiplicity
 _atom_site_fract_x
 _atom_site_fract_y
 _atom_site_fract_z
 _atom_site_occupancy
  K  K0  1  0.75000000  0.98597100  0.32394700  1
  K  K1  1  0.25000000  0.51402900  0.82394700  1
  K  K2  1  0.25000000  0.01402900  0.67605300  1
  K  K3  1  0.75000000  0.48597100  0.17605300  1
  Na  Na4  1  0.75000000  0.12682200  0.94696600  1
  Na  Na5  1  0.75000000  0.62682200  0.55303400  1
  Na  Na6  1  0.25000000  0.37317800  0.44696600  1
  Na  Na7  1  0.25000000  0.87317800  0.05303400  1
  Si  Si8  1  0.75000000  0.27183400  0.57800200  1
  Si  Si9  1  0.25000000  0.22816600  0.07800200  1
  Si  Si10  1  0.75000000  0.77183400  0.92199800  1
  Si  Si11  1  0.25000000  0.72816600  0.42199800  1
  F  F12  1  0.52940600  0.17115700  0.50388300  1
  F  F13  1  0.96940400  0.37726000  0.64540200  1
  F  F14  1  0.75000000  0.16573300  0.71709000  1
  F  F15  1  0.97059400  0.67115700  0.99611700  1
  F  F16  1  0.03059600  0.62274000  0.35459800  1
  F  F17  1  0.97059400  0.17115700  0.50388300  1
  F  F18  1  0.25000000  0.62082900  0.56370800  1
  F  F19  1  0.02940600  0.82884300  0.49611700  1
  F  F20  1  0.25000000  0.83426700  0.28291000  1
  F  F21  1  0.25000000  0.33426700  0.21709000  1
  F  F22  1  0.46940400  0.12274000  0.14540200  1
  F  F23  1  0.52940600  0.67115700  0.99611700  1
  F  F24  1  0.75000000  0.66573300  0.78291000  1
  F  F25  1  0.03059600  0.12274000  0.14540200  1
  F  F26  1  0.47059400  0.82884300  0.49611700  1
  F  F27  1  0.75000000  0.87917100  0.06370800  1
  F  F28  1  0.02940600  0.32884300  0.00388300  1
  F  F29  1  0.46940400  0.62274000  0.35459800  1
  F  F30  1  0.47059400  0.32884300  0.00388300  1
  F  F31  1  0.96940400  0.87726000  0.85459800  1
  F  F32  1  0.25000000  0.12082900  0.93629200  1
  F  F33  1  0.75000000  0.37917100  0.43629200  1
  F  F34  1  0.53059600  0.87726000  0.85459800  1
  F  F35  1  0.53059600  0.37726000  0.64540200  1
