# generated using pymatgen
data_NpAgSeO5
_symmetry_space_group_name_H-M   'P 1'
_cell_length_a   9.78621500
_cell_length_b   4.30216300
_cell_length_c   12.24141955
_cell_angle_alpha   74.40267926
_cell_angle_beta   90.00000000
_cell_angle_gamma   90.00000000
_symmetry_Int_Tables_number   1
_chemical_formula_structural   NpAgSeO5
_chemical_formula_sum   'Np4 Ag4 Se4 O20'
_cell_volume   496.40787395
_cell_formula_units_Z   4
loop_
 _symmetry_equiv_pos_site_id
 _symmetry_equiv_pos_as_xyz
  1  'x, y, z'
loop_
 _atom_site_type_symbol
 _atom_site_label
 _atom_site_symmetry_multiplicity
 _atom_site_fract_x
 _atom_site_fract_y
 _atom_site_fract_z
 _atom_site_occupancy
  Np  Np0  1  0.15687600  0.00610700  0.74406600  1
  Np  Np1  1  0.34312400  0.00610700  0.24406600  1
  Np  Np2  1  0.65687600  0.99389300  0.75593400  1
  Np  Np3  1  0.84312400  0.99389300  0.25593400  1
  Ag  Ag4  1  0.88944300  0.61605100  0.58660300  1
  Ag  Ag5  1  0.61055700  0.61605100  0.08660300  1
  Ag  Ag6  1  0.38944300  0.38394900  0.91339700  1
  Ag  Ag7  1  0.11055700  0.38394900  0.41339700  1
  Se  Se8  1  0.58787800  0.32921800  0.38764900  1
  Se  Se9  1  0.91212200  0.32921800  0.88764900  1
  Se  Se10  1  0.41212200  0.67078200  0.61235100  1
  Se  Se11  1  0.08787800  0.67078200  0.11235100  1
  O  O12  1  0.95840300  0.51766600  0.21020200  1
  O  O13  1  0.24670900  0.89692400  0.88477300  1
  O  O14  1  0.08827600  0.04469900  0.13891100  1
  O  O15  1  0.56759100  0.88223800  0.89735700  1
  O  O16  1  0.73153500  0.46766100  0.30539600  1
  O  O17  1  0.04159700  0.48233400  0.78979800  1
  O  O18  1  0.41172400  0.04469900  0.63891100  1
  O  O19  1  0.23153500  0.53233900  0.19460400  1
  O  O20  1  0.43240900  0.11776200  0.10264300  1
  O  O21  1  0.75329100  0.10307600  0.11522700  1
  O  O22  1  0.25329100  0.89692400  0.38477300  1
  O  O23  1  0.91172400  0.95530100  0.86108900  1
  O  O24  1  0.93240900  0.88223800  0.39735700  1
  O  O25  1  0.26846500  0.53233900  0.69460400  1
  O  O26  1  0.06759100  0.11776200  0.60264300  1
  O  O27  1  0.76846500  0.46766100  0.80539600  1
  O  O28  1  0.74670900  0.10307600  0.61522700  1
  O  O29  1  0.45840300  0.48233400  0.28979800  1
  O  O30  1  0.54159700  0.51766600  0.71020200  1
  O  O31  1  0.58827600  0.95530100  0.36108900  1
