# generated using pymatgen
data_SiO2
_symmetry_space_group_name_H-M   'P 1'
_cell_length_a   4.92662000
_cell_length_b   7.05544780
_cell_length_c   7.15015579
_cell_angle_alpha   114.06211811
_cell_angle_beta   104.07313072
_cell_angle_gamma   102.22579001
_symmetry_Int_Tables_number   1
_chemical_formula_structural   SiO2
_chemical_formula_sum   'Si4 O8'
_cell_volume   206.11970747
_cell_formula_units_Z   4
loop_
 _symmetry_equiv_pos_site_id
 _symmetry_equiv_pos_as_xyz
  1  'x, y, z'
loop_
 _atom_site_type_symbol
 _atom_site_label
 _atom_site_symmetry_multiplicity
 _atom_site_fract_x
 _atom_site_fract_y
 _atom_site_fract_z
 _atom_site_occupancy
  Si  Si0  1  0.81529200  0.15989000  0.28382900  1
  Si  Si1  1  0.43703900  0.14444800  0.52882500  1
  Si  Si2  1  0.81702800  0.56930900  0.63200200  1
  Si  Si3  1  0.45159500  0.87231700  0.77243500  1
  O  O4  1  0.67474800  0.39702500  0.71308700  1
  O  O5  1  0.60991400  0.72017000  0.62868000  1
  O  O6  1  0.81143500  0.41484000  0.38426700  1
  O  O7  1  0.16399700  0.72619700  0.79122500  1
  O  O8  1  0.69666100  0.04518900  0.01818000  1
  O  O9  1  0.33672500  0.00697400  0.64957700  1
  O  O10  1  0.60364300  0.02446400  0.36676800  1
  O  O11  1  0.15071300  0.16211900  0.37597600  1
