# generated using pymatgen
data_BaB4O7
_symmetry_space_group_name_H-M   'P 1'
_cell_length_a   4.34843800
_cell_length_b   9.09787500
_cell_length_c   11.10724000
_cell_angle_alpha   90.00000000
_cell_angle_beta   90.00000000
_cell_angle_gamma   90.00000000
_symmetry_Int_Tables_number   1
_chemical_formula_structural   BaB4O7
_chemical_formula_sum   'Ba4 B16 O28'
_cell_volume   439.41957919
_cell_formula_units_Z   4
loop_
 _symmetry_equiv_pos_site_id
 _symmetry_equiv_pos_as_xyz
  1  'x, y, z'
loop_
 _atom_site_type_symbol
 _atom_site_label
 _atom_site_symmetry_multiplicity
 _atom_site_fract_x
 _atom_site_fract_y
 _atom_site_fract_z
 _atom_site_occupancy
  Ba  Ba0  1  0.73111500  0.85256600  0.75000000  1
  Ba  Ba1  1  0.26888500  0.14743400  0.25000000  1
  Ba  Ba2  1  0.23111500  0.64743400  0.25000000  1
  Ba  Ba3  1  0.76888500  0.35256600  0.75000000  1
  B  B4  1  0.70593400  0.91081200  0.12632000  1
  B  B5  1  0.29406600  0.08918800  0.87368000  1
  B  B6  1  0.77692000  0.15795300  0.49937500  1
  B  B7  1  0.22308000  0.84204700  0.99937500  1
  B  B8  1  0.77692000  0.15795300  0.00062500  1
  B  B9  1  0.79406600  0.41081200  0.37368000  1
  B  B10  1  0.70593400  0.91081200  0.37368000  1
  B  B11  1  0.20593400  0.58918800  0.62632000  1
  B  B12  1  0.72308000  0.65795300  0.00062500  1
  B  B13  1  0.27692000  0.34204700  0.50062500  1
  B  B14  1  0.79406600  0.41081200  0.12632000  1
  B  B15  1  0.27692000  0.34204700  0.99937500  1
  B  B16  1  0.72308000  0.65795300  0.49937500  1
  B  B17  1  0.20593400  0.58918800  0.87368000  1
  B  B18  1  0.22308000  0.84204700  0.50062500  1
  B  B19  1  0.29406600  0.08918800  0.62632000  1
  O  O20  1  0.37866900  0.69558800  0.53841400  1
  O  O21  1  0.29426500  0.43649700  0.89583400  1
  O  O22  1  0.79426500  0.06350300  0.39583400  1
  O  O23  1  0.70573500  0.56350300  0.10416600  1
  O  O24  1  0.37580200  0.89017100  0.39434500  1
  O  O25  1  0.62419800  0.10982900  0.89434500  1
  O  O26  1  0.12133100  0.19558800  0.96158600  1
  O  O27  1  0.87580200  0.60982900  0.60565500  1
  O  O28  1  0.37580200  0.89017100  0.10565500  1
  O  O29  1  0.70573500  0.56350300  0.39583400  1
  O  O30  1  0.20573500  0.93649700  0.89583400  1
  O  O31  1  0.78489100  0.86742800  0.25000000  1
  O  O32  1  0.28489100  0.63257200  0.75000000  1
  O  O33  1  0.20573500  0.93649700  0.60416600  1
  O  O34  1  0.29426500  0.43649700  0.60416600  1
  O  O35  1  0.12419800  0.39017100  0.39434500  1
  O  O36  1  0.62133100  0.30441200  0.03841400  1
  O  O37  1  0.12133100  0.19558800  0.53841400  1
  O  O38  1  0.62419800  0.10982900  0.60565500  1
  O  O39  1  0.62133100  0.30441200  0.46158600  1
  O  O40  1  0.87580200  0.60982900  0.89434500  1
  O  O41  1  0.21510900  0.13257200  0.75000000  1
  O  O42  1  0.71510900  0.36742800  0.25000000  1
  O  O43  1  0.87866900  0.80441200  0.03841400  1
  O  O44  1  0.87866900  0.80441200  0.46158600  1
  O  O45  1  0.79426500  0.06350300  0.10416600  1
  O  O46  1  0.12419800  0.39017100  0.10565500  1
  O  O47  1  0.37866900  0.69558800  0.96158600  1
