# generated using pymatgen
data_ZnS
_symmetry_space_group_name_H-M   'P 1'
_cell_length_a   3.85357848
_cell_length_b   3.85357848
_cell_length_c   56.70237400
_cell_angle_alpha   90.00000000
_cell_angle_beta   90.00000000
_cell_angle_gamma   120.00000827
_symmetry_Int_Tables_number   1
_chemical_formula_structural   ZnS
_chemical_formula_sum   'Zn18 S18'
_cell_volume   729.22282564
_cell_formula_units_Z   18
loop_
 _symmetry_equiv_pos_site_id
 _symmetry_equiv_pos_as_xyz
  1  'x, y, z'
loop_
 _atom_site_type_symbol
 _atom_site_label
 _atom_site_symmetry_multiplicity
 _atom_site_fract_x
 _atom_site_fract_y
 _atom_site_fract_z
 _atom_site_occupancy
  Zn  Zn0  1  0.00000000  0.00000000  0.16666800  1
  Zn  Zn1  1  0.00000000  0.00000000  0.55556100  1
  Zn  Zn2  1  0.66666700  0.33333300  0.27777700  1
  Zn  Zn3  1  0.66666700  0.33333300  0.72221900  1
  Zn  Zn4  1  0.00000000  0.00000000  0.77778400  1
  Zn  Zn5  1  0.00000000  0.00000000  0.44445500  1
  Zn  Zn6  1  0.00000000  0.00000000  0.66667400  1
  Zn  Zn7  1  0.33333300  0.66666700  0.05556100  1
  Zn  Zn8  1  0.33333300  0.66666700  0.61110600  1
  Zn  Zn9  1  0.66666700  0.33333300  0.11111200  1
  Zn  Zn10  1  0.33333300  0.66666700  0.22222300  1
  Zn  Zn11  1  0.66666700  0.33333300  0.94443800  1
  Zn  Zn12  1  0.33333300  0.66666700  0.38889600  1
  Zn  Zn13  1  0.00000000  0.00000000  0.33332600  1
  Zn  Zn14  1  0.33333300  0.66666700  0.83332700  1
  Zn  Zn15  1  0.00000000  0.00000000  0.00001300  1
  Zn  Zn16  1  0.66666700  0.33333300  0.49999700  1
  Zn  Zn17  1  0.00000000  0.00000000  0.88889800  1
  S  S18  1  0.33333300  0.66666700  0.43060100  1
  S  S19  1  0.00000000  0.00000000  0.04166900  1
  S  S20  1  0.00000000  0.00000000  0.59718500  1
  S  S21  1  0.66666700  0.33333300  0.15277900  1
  S  S22  1  0.66666700  0.33333300  0.76392100  1
  S  S23  1  0.33333300  0.66666700  0.09722700  1
  S  S24  1  0.66666700  0.33333300  0.98614200  1
  S  S25  1  0.00000000  0.00000000  0.70829800  1
  S  S26  1  0.00000000  0.00000000  0.81940700  1
  S  S27  1  0.00000000  0.00000000  0.37496700  1
  S  S28  1  0.66666700  0.33333300  0.31944000  1
  S  S29  1  0.33333300  0.66666700  0.65281000  1
  S  S30  1  0.00000000  0.00000000  0.93052200  1
  S  S31  1  0.00000000  0.00000000  0.48607600  1
  S  S32  1  0.33333300  0.66666700  0.26389000  1
  S  S33  1  0.66666700  0.33333300  0.54169900  1
  S  S34  1  0.00000000  0.00000000  0.20833200  1
  S  S35  1  0.33333300  0.66666700  0.87503200  1
