# generated using pymatgen
data_SiO2
_symmetry_space_group_name_H-M   'P 1'
_cell_length_a   8.98279600
_cell_length_b   9.17688500
_cell_length_c   9.21061861
_cell_angle_alpha   111.52087177
_cell_angle_beta   98.19251031
_cell_angle_gamma   98.98007516
_symmetry_Int_Tables_number   1
_chemical_formula_structural   SiO2
_chemical_formula_sum   'Si12 O24'
_cell_volume   680.99211514
_cell_formula_units_Z   12
loop_
 _symmetry_equiv_pos_site_id
 _symmetry_equiv_pos_as_xyz
  1  'x, y, z'
loop_
 _atom_site_type_symbol
 _atom_site_label
 _atom_site_symmetry_multiplicity
 _atom_site_fract_x
 _atom_site_fract_y
 _atom_site_fract_z
 _atom_site_occupancy
  Si  Si0  1  0.33777100  0.90334400  0.71337700  1
  Si  Si1  1  0.70685800  0.80829300  0.00859700  1
  Si  Si2  1  0.69279100  0.00878300  0.79966700  1
  Si  Si3  1  0.68980200  0.10970100  0.30636400  1
  Si  Si4  1  0.33322200  0.00193600  0.21961300  1
  Si  Si5  1  0.35216400  0.70180100  0.92271800  1
  Si  Si6  1  0.11938900  0.39232200  0.89111400  1
  Si  Si7  1  0.90878200  0.59315300  0.09748300  1
  Si  Si8  1  0.67605200  0.30868100  0.09917100  1
  Si  Si9  1  0.11818600  0.87811400  0.40467400  1
  Si  Si10  1  0.31927200  0.20150900  0.01229300  1
  Si  Si11  1  0.90947100  0.10039200  0.58962600  1
  O  O12  1  0.22518800  0.84162300  0.53925800  1
  O  O13  1  0.22373400  0.99526500  0.34317200  1
  O  O14  1  0.24974000  0.52249400  0.87006400  1
  O  O15  1  0.50948800  0.09080100  0.32045800  1
  O  O16  1  0.27085400  0.10416300  0.12119000  1
  O  O17  1  0.69919200  0.18994200  0.92628800  1
  O  O18  1  0.98604600  0.96552600  0.47606500  1
  O  O19  1  0.04309400  0.25267100  0.71500800  1
  O  O20  1  0.77509200  0.48866000  0.14504700  1
  O  O21  1  0.74911900  0.90217200  0.89532900  1
  O  O22  1  0.03868300  0.70661300  0.25778600  1
  O  O23  1  0.30966300  0.07508300  0.83024600  1
  O  O24  1  0.79859600  0.16443600  0.48179300  1
  O  O25  1  0.83231300  0.70096700  0.01482700  1
  O  O26  1  0.29873300  0.76997400  0.78814600  1
  O  O27  1  0.49415400  0.31251000  0.08958700  1
  O  O28  1  0.80796400  0.01622800  0.68206700  1
  O  O29  1  0.51691400  0.92534000  0.69460900  1
  O  O30  1  0.98707600  0.47450200  0.96852700  1
  O  O31  1  0.73601000  0.24622600  0.23676700  1
  O  O32  1  0.19926700  0.31543600  0.00787400  1
  O  O33  1  0.32705400  0.81920800  0.09558800  1
  O  O34  1  0.71563900  0.93760000  0.18853800  1
  O  O35  1  0.53336000  0.69316400  0.93559200  1
