# generated using pymatgen
data_ZnS
_symmetry_space_group_name_H-M   'P 1'
_cell_length_a   3.85300147
_cell_length_b   3.85300147
_cell_length_c   63.02499400
_cell_angle_alpha   90.00000000
_cell_angle_beta   90.00000000
_cell_angle_gamma   119.99999089
_symmetry_Int_Tables_number   1
_chemical_formula_structural   ZnS
_chemical_formula_sum   'Zn20 S20'
_cell_volume   810.29252742
_cell_formula_units_Z   20
loop_
 _symmetry_equiv_pos_site_id
 _symmetry_equiv_pos_as_xyz
  1  'x, y, z'
loop_
 _atom_site_type_symbol
 _atom_site_label
 _atom_site_symmetry_multiplicity
 _atom_site_fract_x
 _atom_site_fract_y
 _atom_site_fract_z
 _atom_site_occupancy
  Zn  Zn0  1  0.00000000  0.00000000  0.45000900  1
  Zn  Zn1  1  0.66666700  0.33333300  0.70001200  1
  Zn  Zn2  1  0.66666700  0.33333300  0.20000800  1
  Zn  Zn3  1  0.33333300  0.66666700  0.15001300  1
  Zn  Zn4  1  0.00000000  0.00000000  0.90000900  1
  Zn  Zn5  1  0.66666700  0.33333300  0.95001900  1
  Zn  Zn6  1  0.33333300  0.66666700  0.55000800  1
  Zn  Zn7  1  0.33333300  0.66666700  0.80001300  1
  Zn  Zn8  1  0.00000000  0.00000000  0.75001300  1
  Zn  Zn9  1  0.00000000  0.00000000  0.10001200  1
  Zn  Zn10  1  0.33333300  0.66666700  0.65002300  1
  Zn  Zn11  1  0.66666700  0.33333300  0.40001900  1
  Zn  Zn12  1  0.00000000  0.00000000  0.60000900  1
  Zn  Zn13  1  0.33333300  0.66666700  0.00000900  1
  Zn  Zn14  1  0.66666700  0.33333300  0.05002400  1
  Zn  Zn15  1  0.66666700  0.33333300  0.30001900  1
  Zn  Zn16  1  0.33333300  0.66666700  0.35000900  1
  Zn  Zn17  1  0.00000000  0.00000000  0.25000900  1
  Zn  Zn18  1  0.66666700  0.33333300  0.85000800  1
  Zn  Zn19  1  0.66666700  0.33333300  0.50002300  1
  S  S20  1  0.66666700  0.33333300  0.33745700  1
  S  S21  1  0.66666700  0.33333300  0.88745900  1
  S  S22  1  0.33333300  0.66666700  0.58745800  1
  S  S23  1  0.00000000  0.00000000  0.13748600  1
  S  S24  1  0.66666700  0.33333300  0.73748600  1
  S  S25  1  0.66666700  0.33333300  0.08748500  1
  S  S26  1  0.33333300  0.66666700  0.03751700  1
  S  S27  1  0.00000000  0.00000000  0.28751700  1
  S  S28  1  0.00000000  0.00000000  0.78748600  1
  S  S29  1  0.66666700  0.33333300  0.98745700  1
  S  S30  1  0.00000000  0.00000000  0.63751800  1
  S  S31  1  0.66666700  0.33333300  0.23745900  1
  S  S32  1  0.00000000  0.00000000  0.93751700  1
  S  S33  1  0.33333300  0.66666700  0.38751700  1
  S  S34  1  0.00000000  0.00000000  0.48751700  1
  S  S35  1  0.66666700  0.33333300  0.43745700  1
  S  S36  1  0.33333300  0.66666700  0.18748600  1
  S  S37  1  0.33333300  0.66666700  0.83748600  1
  S  S38  1  0.66666700  0.33333300  0.53748400  1
  S  S39  1  0.33333300  0.66666700  0.68748500  1
