# generated using pymatgen
data_Na2CuSi3O8
_symmetry_space_group_name_H-M   'P 1'
_cell_length_a   10.41055700
_cell_length_b   8.01281200
_cell_length_c   9.73027488
_cell_angle_alpha   74.34396582
_cell_angle_beta   90.00000000
_cell_angle_gamma   90.00000000
_symmetry_Int_Tables_number   1
_chemical_formula_structural   Na2CuSi3O8
_chemical_formula_sum   'Na8 Cu4 Si12 O32'
_cell_volume   781.56447908
_cell_formula_units_Z   4
loop_
 _symmetry_equiv_pos_site_id
 _symmetry_equiv_pos_as_xyz
  1  'x, y, z'
loop_
 _atom_site_type_symbol
 _atom_site_label
 _atom_site_symmetry_multiplicity
 _atom_site_fract_x
 _atom_site_fract_y
 _atom_site_fract_z
 _atom_site_occupancy
  Na  Na0  1  0.48924000  0.29435600  0.12901400  1
  Na  Na1  1  0.01076000  0.29435600  0.62901400  1
  Na  Na2  1  0.51076000  0.70564400  0.87098600  1
  Na  Na3  1  0.02604800  0.30342400  0.95940800  1
  Na  Na4  1  0.98924000  0.70564400  0.37098600  1
  Na  Na5  1  0.47395200  0.30342400  0.45940800  1
  Na  Na6  1  0.52604800  0.69657600  0.54059200  1
  Na  Na7  1  0.97395200  0.69657600  0.04059200  1
  Cu  Cu8  1  0.72817500  0.51374700  0.31254000  1
  Cu  Cu9  1  0.77182500  0.51374700  0.81254000  1
  Cu  Cu10  1  0.22817500  0.48625300  0.18746000  1
  Cu  Cu11  1  0.27182500  0.48625300  0.68746000  1
  Si  Si12  1  0.78331000  0.88350800  0.60901300  1
  Si  Si13  1  0.21669000  0.11649200  0.39098700  1
  Si  Si14  1  0.22875200  0.88165500  0.19260900  1
  Si  Si15  1  0.47718500  0.69540400  0.19161100  1
  Si  Si16  1  0.52281500  0.30459600  0.80838900  1
  Si  Si17  1  0.77124800  0.11834500  0.80739100  1
  Si  Si18  1  0.71669000  0.88350800  0.10901300  1
  Si  Si19  1  0.28331000  0.11649200  0.89098700  1
  Si  Si20  1  0.72875200  0.11834500  0.30739100  1
  Si  Si21  1  0.02281500  0.69540400  0.69161100  1
  Si  Si22  1  0.27124800  0.88165500  0.69260900  1
  Si  Si23  1  0.97718500  0.30459600  0.30838900  1
  O  O24  1  0.44424700  0.39746300  0.66312300  1
  O  O25  1  0.39670500  0.57127300  0.11588900  1
  O  O26  1  0.10329500  0.57127300  0.61588900  1
  O  O27  1  0.41753600  0.20182800  0.93214700  1
  O  O28  1  0.79373100  0.96510500  0.95797300  1
  O  O29  1  0.69093900  0.73898700  0.70988700  1
  O  O30  1  0.82799800  0.04130800  0.67845500  1
  O  O31  1  0.88227500  0.15476800  0.27350900  1
  O  O32  1  0.67200200  0.04130800  0.17845500  1
  O  O33  1  0.38227500  0.84523200  0.22649100  1
  O  O34  1  0.11772500  0.84523200  0.72649100  1
  O  O35  1  0.91753600  0.79817200  0.56785300  1
  O  O36  1  0.30906100  0.26101300  0.29011300  1
  O  O37  1  0.55575300  0.60253700  0.33687700  1
  O  O38  1  0.20626900  0.03489500  0.04202700  1
  O  O39  1  0.70626900  0.96510500  0.45797300  1
  O  O40  1  0.14793100  0.71060500  0.18992000  1
  O  O41  1  0.35206900  0.71060500  0.68992000  1
  O  O42  1  0.17200200  0.95869200  0.32154500  1
  O  O43  1  0.58246400  0.79817200  0.06785300  1
  O  O44  1  0.61772500  0.15476800  0.77350900  1
  O  O45  1  0.89670500  0.42872700  0.38411100  1
  O  O46  1  0.85206900  0.28939500  0.81008000  1
  O  O47  1  0.19093900  0.26101300  0.79011300  1
  O  O48  1  0.64793100  0.28939500  0.31008000  1
  O  O49  1  0.05575300  0.39746300  0.16312300  1
  O  O50  1  0.80906100  0.73898700  0.20988700  1
  O  O51  1  0.94424700  0.60253700  0.83687700  1
  O  O52  1  0.32799800  0.95869200  0.82154500  1
  O  O53  1  0.29373100  0.03489500  0.54202700  1
  O  O54  1  0.08246400  0.20182800  0.43214700  1
  O  O55  1  0.60329500  0.42872700  0.88411100  1
