# generated using pymatgen
data_ZnS
_symmetry_space_group_name_H-M   'P 1'
_cell_length_a   3.85401397
_cell_length_b   3.85401397
_cell_length_c   56.68988400
_cell_angle_alpha   90.00000000
_cell_angle_beta   90.00000000
_cell_angle_gamma   119.99999955
_symmetry_Int_Tables_number   1
_chemical_formula_structural   ZnS
_chemical_formula_sum   'Zn18 S18'
_cell_volume   729.22705316
_cell_formula_units_Z   18
loop_
 _symmetry_equiv_pos_site_id
 _symmetry_equiv_pos_as_xyz
  1  'x, y, z'
loop_
 _atom_site_type_symbol
 _atom_site_label
 _atom_site_symmetry_multiplicity
 _atom_site_fract_x
 _atom_site_fract_y
 _atom_site_fract_z
 _atom_site_occupancy
  Zn  Zn0  1  0.00000000  0.00000000  0.16666800  1
  Zn  Zn1  1  0.33333300  0.66666700  0.72221800  1
  Zn  Zn2  1  0.66666700  0.33333300  0.27777700  1
  Zn  Zn3  1  0.00000000  0.00000000  0.44446100  1
  Zn  Zn4  1  0.33333300  0.66666700  0.55555600  1
  Zn  Zn5  1  0.00000000  0.00000000  0.66666700  1
  Zn  Zn6  1  0.33333300  0.66666700  0.05556100  1
  Zn  Zn7  1  0.66666700  0.33333300  0.61112300  1
  Zn  Zn8  1  0.66666700  0.33333300  0.11111300  1
  Zn  Zn9  1  0.33333300  0.66666700  0.22222300  1
  Zn  Zn10  1  0.66666700  0.33333300  0.77777600  1
  Zn  Zn11  1  0.66666700  0.33333300  0.94443900  1
  Zn  Zn12  1  0.33333300  0.66666700  0.38889600  1
  Zn  Zn13  1  0.00000000  0.00000000  0.33332600  1
  Zn  Zn14  1  0.33333300  0.66666700  0.83334500  1
  Zn  Zn15  1  0.00000000  0.00000000  0.00001300  1
  Zn  Zn16  1  0.66666700  0.33333300  0.49999600  1
  Zn  Zn17  1  0.00000000  0.00000000  0.88888600  1
  S  S18  1  0.66666700  0.33333300  0.98614300  1
  S  S19  1  0.33333300  0.66666700  0.43060200  1
  S  S20  1  0.00000000  0.00000000  0.04166900  1
  S  S21  1  0.66666700  0.33333300  0.65277600  1
  S  S22  1  0.66666700  0.33333300  0.15277900  1
  S  S23  1  0.33333300  0.66666700  0.09722800  1
  S  S24  1  0.33333300  0.66666700  0.76385500  1
  S  S25  1  0.00000000  0.00000000  0.70833000  1
  S  S26  1  0.66666700  0.33333300  0.81948000  1
  S  S27  1  0.00000000  0.00000000  0.37496700  1
  S  S28  1  0.66666700  0.33333300  0.31944000  1
  S  S29  1  0.00000000  0.00000000  0.93052200  1
  S  S30  1  0.00000000  0.00000000  0.48610800  1
  S  S31  1  0.33333300  0.66666700  0.26389000  1
  S  S32  1  0.66666700  0.33333300  0.54163400  1
  S  S33  1  0.00000000  0.00000000  0.20833100  1
  S  S34  1  0.33333300  0.66666700  0.87499600  1
  S  S35  1  0.33333300  0.66666700  0.59725700  1
