# generated using pymatgen
data_Te2Xe(OF5)2
_symmetry_space_group_name_H-M   'P 1'
_cell_length_a   9.88284900
_cell_length_b   10.71772200
_cell_length_c   10.88290318
_cell_angle_alpha   73.03190029
_cell_angle_beta   90.00000000
_cell_angle_gamma   90.00000000
_symmetry_Int_Tables_number   1
_chemical_formula_structural   Te2Xe(OF5)2
_chemical_formula_sum   'Te8 Xe4 O8 F40'
_cell_volume   1102.55326828
_cell_formula_units_Z   4
loop_
 _symmetry_equiv_pos_site_id
 _symmetry_equiv_pos_as_xyz
  1  'x, y, z'
loop_
 _atom_site_type_symbol
 _atom_site_label
 _atom_site_symmetry_multiplicity
 _atom_site_fract_x
 _atom_site_fract_y
 _atom_site_fract_z
 _atom_site_occupancy
  Te  Te0  1  0.78528800  0.32457600  0.66006900  1
  Te  Te1  1  0.71471200  0.32457600  0.16006900  1
  Te  Te2  1  0.28528800  0.67542400  0.83993100  1
  Te  Te3  1  0.79578800  0.83006800  0.64972300  1
  Te  Te4  1  0.20421200  0.16993200  0.35027700  1
  Te  Te5  1  0.29578800  0.16993200  0.85027700  1
  Te  Te6  1  0.70421200  0.83006800  0.14972300  1
  Te  Te7  1  0.21471200  0.67542400  0.33993100  1
  Xe  Xe8  1  0.00000000  0.50000000  0.00000000  1
  Xe  Xe9  1  0.50000000  0.50000000  0.50000000  1
  Xe  Xe10  1  0.00000000  0.00000000  0.00000000  1
  Xe  Xe11  1  0.50000000  0.00000000  0.50000000  1
  O  O12  1  0.34306900  0.04660800  0.35150400  1
  O  O13  1  0.15693100  0.04660800  0.85150400  1
  O  O14  1  0.11830800  0.67935200  0.92629500  1
  O  O15  1  0.61830800  0.32064800  0.57370500  1
  O  O16  1  0.88169200  0.32064800  0.07370500  1
  O  O17  1  0.84306900  0.95339200  0.14849600  1
  O  O18  1  0.38169200  0.67935200  0.42629500  1
  O  O19  1  0.65693100  0.95339200  0.64849600  1
  F  F20  1  0.76340800  0.17573400  0.29366500  1
  F  F21  1  0.94955700  0.32271000  0.74759300  1
  F  F22  1  0.78306600  0.43252300  0.25518200  1
  F  F23  1  0.28306600  0.56747700  0.24481800  1
  F  F24  1  0.25476500  0.27411000  0.18570300  1
  F  F25  1  0.58588100  0.92205900  0.22712000  1
  F  F26  1  0.15230300  0.52602300  0.46547300  1
  F  F27  1  0.23659200  0.82426600  0.70633500  1
  F  F28  1  0.74523500  0.72589000  0.81429700  1
  F  F29  1  0.73659200  0.17573400  0.79366500  1
  F  F30  1  0.55044300  0.32271000  0.24759300  1
  F  F31  1  0.06567200  0.29152500  0.34244600  1
  F  F32  1  0.05044300  0.67729000  0.25240700  1
  F  F33  1  0.68434200  0.72887500  0.57458300  1
  F  F34  1  0.24523500  0.27411000  0.68570300  1
  F  F35  1  0.63416500  0.21626700  0.07332100  1
  F  F36  1  0.91411900  0.92205900  0.72712000  1
  F  F37  1  0.75476500  0.72589000  0.31429700  1
  F  F38  1  0.21693400  0.56747700  0.74481800  1
  F  F39  1  0.85941500  0.92148200  0.48541300  1
  F  F40  1  0.44955700  0.67729000  0.75240700  1
  F  F41  1  0.41411900  0.07794100  0.77288000  1
  F  F42  1  0.31565800  0.27112500  0.42541700  1
  F  F43  1  0.84769700  0.47397700  0.53452700  1
  F  F44  1  0.64058500  0.92148200  0.98541300  1
  F  F45  1  0.56567200  0.70847500  0.15755400  1
  F  F46  1  0.35941500  0.07851800  0.01458700  1
  F  F47  1  0.13416500  0.78373300  0.42667900  1
  F  F48  1  0.43432800  0.29152500  0.84244600  1
  F  F49  1  0.26340800  0.82426600  0.20633500  1
  F  F50  1  0.71693400  0.43252300  0.75518200  1
  F  F51  1  0.18434200  0.27112500  0.92541700  1
  F  F52  1  0.34769700  0.52602300  0.96547300  1
  F  F53  1  0.65230300  0.47397700  0.03452700  1
  F  F54  1  0.36583500  0.78373300  0.92667900  1
  F  F55  1  0.86583500  0.21626700  0.57332100  1
  F  F56  1  0.08588100  0.07794100  0.27288000  1
  F  F57  1  0.81565800  0.72887500  0.07458300  1
  F  F58  1  0.14058500  0.07851800  0.51458700  1
  F  F59  1  0.93432800  0.70847500  0.65755400  1
