# generated using pymatgen
data_SiO2
_symmetry_space_group_name_H-M   'P 1'
_cell_length_a   13.77683380
_cell_length_b   13.77683380
_cell_length_c   9.03478800
_cell_angle_alpha   90.00000000
_cell_angle_beta   90.00000000
_cell_angle_gamma   119.99999905
_symmetry_Int_Tables_number   1
_chemical_formula_structural   SiO2
_chemical_formula_sum   'Si24 O48'
_cell_volume   1485.07176400
_cell_formula_units_Z   24
loop_
 _symmetry_equiv_pos_site_id
 _symmetry_equiv_pos_as_xyz
  1  'x, y, z'
loop_
 _atom_site_type_symbol
 _atom_site_label
 _atom_site_symmetry_multiplicity
 _atom_site_fract_x
 _atom_site_fract_y
 _atom_site_fract_z
 _atom_site_occupancy
  Si  Si0  1  0.33057800  0.86945500  0.07358900  1
  Si  Si1  1  0.53887700  0.86945500  0.92641100  1
  Si  Si2  1  0.13054500  0.46112300  0.42641100  1
  Si  Si3  1  0.86945500  0.53887700  0.92641100  1
  Si  Si4  1  0.46112300  0.13054500  0.07358900  1
  Si  Si5  1  0.46112300  0.33057800  0.57358900  1
  Si  Si6  1  0.13054500  0.66942200  0.92641100  1
  Si  Si7  1  0.46112300  0.33057800  0.92641100  1
  Si  Si8  1  0.66942200  0.13054500  0.57358900  1
  Si  Si9  1  0.46112300  0.13054500  0.42641100  1
  Si  Si10  1  0.33057800  0.46112300  0.57358900  1
  Si  Si11  1  0.86945500  0.33057800  0.42641100  1
  Si  Si12  1  0.53887700  0.66942200  0.42641100  1
  Si  Si13  1  0.33057800  0.46112300  0.92641100  1
  Si  Si14  1  0.33057800  0.86945500  0.42641100  1
  Si  Si15  1  0.66942200  0.13054500  0.92641100  1
  Si  Si16  1  0.53887700  0.66942200  0.07358900  1
  Si  Si17  1  0.13054500  0.66942200  0.57358900  1
  Si  Si18  1  0.13054500  0.46112300  0.07358900  1
  Si  Si19  1  0.86945500  0.33057800  0.07358900  1
  Si  Si20  1  0.66942200  0.53887700  0.42641100  1
  Si  Si21  1  0.86945500  0.53887700  0.57358900  1
  Si  Si22  1  0.53887700  0.86945500  0.57358900  1
  Si  Si23  1  0.66942200  0.53887700  0.07358900  1
  O  O24  1  0.58435000  0.79217500  0.50000000  1
  O  O25  1  0.41565000  0.20782500  0.00000000  1
  O  O26  1  0.79217500  0.20782500  0.00000000  1
  O  O27  1  0.63099100  0.63099100  0.04173400  1
  O  O28  1  0.20782500  0.79217500  0.00000000  1
  O  O29  1  0.15429900  0.67564300  0.75000000  1
  O  O30  1  0.20782500  0.41565000  0.00000000  1
  O  O31  1  0.84570100  0.52134500  0.75000000  1
  O  O32  1  0.20782500  0.79217500  0.50000000  1
  O  O33  1  0.79217500  0.58435000  0.00000000  1
  O  O34  1  0.41891300  0.83782600  0.00000000  1
  O  O35  1  0.47865500  0.15429900  0.25000000  1
  O  O36  1  0.00000000  0.36900900  0.04173400  1
  O  O37  1  0.63099100  0.00000000  0.95826600  1
  O  O38  1  0.67564300  0.15429900  0.75000000  1
  O  O39  1  0.41891300  0.58108700  0.50000000  1
  O  O40  1  0.52134500  0.84570100  0.75000000  1
  O  O41  1  0.58435000  0.79217500  0.00000000  1
  O  O42  1  0.84570100  0.32435700  0.25000000  1
  O  O43  1  0.58108700  0.41891300  0.50000000  1
  O  O44  1  0.41565000  0.20782500  0.50000000  1
  O  O45  1  0.83782600  0.41891300  0.50000000  1
  O  O46  1  0.20782500  0.41565000  0.50000000  1
  O  O47  1  0.00000000  0.63099100  0.54173400  1
  O  O48  1  0.00000000  0.63099100  0.95826600  1
  O  O49  1  0.63099100  0.00000000  0.54173400  1
  O  O50  1  0.00000000  0.36900900  0.45826600  1
  O  O51  1  0.41891300  0.83782600  0.50000000  1
  O  O52  1  0.36900900  0.00000000  0.04173400  1
  O  O53  1  0.32435700  0.84570100  0.25000000  1
  O  O54  1  0.67564300  0.52134500  0.25000000  1
  O  O55  1  0.47865500  0.32435700  0.75000000  1
  O  O56  1  0.58108700  0.41891300  0.00000000  1
  O  O57  1  0.15429900  0.47865500  0.25000000  1
  O  O58  1  0.36900900  0.36900900  0.54173400  1
  O  O59  1  0.83782600  0.41891300  0.00000000  1
  O  O60  1  0.52134500  0.67564300  0.25000000  1
  O  O61  1  0.36900900  0.36900900  0.95826600  1
  O  O62  1  0.63099100  0.63099100  0.45826600  1
  O  O63  1  0.58108700  0.16217400  0.00000000  1
  O  O64  1  0.16217400  0.58108700  0.00000000  1
  O  O65  1  0.41891300  0.58108700  0.00000000  1
  O  O66  1  0.36900900  0.00000000  0.45826600  1
  O  O67  1  0.79217500  0.20782500  0.50000000  1
  O  O68  1  0.79217500  0.58435000  0.50000000  1
  O  O69  1  0.32435700  0.47865500  0.75000000  1
  O  O70  1  0.58108700  0.16217400  0.50000000  1
  O  O71  1  0.16217400  0.58108700  0.50000000  1
