# generated using pymatgen
data_SrZrO3
_symmetry_space_group_name_H-M   'P 1'
_cell_length_a   8.39667300
_cell_length_b   8.39667300
_cell_length_c   8.39667300
_cell_angle_alpha   90.00000000
_cell_angle_beta   90.00000000
_cell_angle_gamma   90.00000000
_symmetry_Int_Tables_number   1
_chemical_formula_structural   SrZrO3
_chemical_formula_sum   'Sr8 Zr8 O24'
_cell_volume   592.00001954
_cell_formula_units_Z   8
loop_
 _symmetry_equiv_pos_site_id
 _symmetry_equiv_pos_as_xyz
  1  'x, y, z'
loop_
 _atom_site_type_symbol
 _atom_site_label
 _atom_site_symmetry_multiplicity
 _atom_site_fract_x
 _atom_site_fract_y
 _atom_site_fract_z
 _atom_site_occupancy
  Sr  Sr0  1  0.75470400  0.74529600  0.25470400  1
  Sr  Sr1  1  0.23099500  0.76900500  0.26900500  1
  Sr  Sr2  1  0.26900500  0.23099500  0.76900500  1
  Sr  Sr3  1  0.74529600  0.25470400  0.75470400  1
  Sr  Sr4  1  0.76900500  0.26900500  0.23099500  1
  Sr  Sr5  1  0.73099500  0.73099500  0.73099500  1
  Sr  Sr6  1  0.24529600  0.24529600  0.24529600  1
  Sr  Sr7  1  0.25470400  0.75470400  0.74529600  1
  Zr  Zr8  1  0.49655300  0.99655300  0.50344700  1
  Zr  Zr9  1  0.99655300  0.50344700  0.49655300  1
  Zr  Zr10  1  0.00344700  0.00344700  0.00344700  1
  Zr  Zr11  1  0.00632400  0.50632400  0.99367600  1
  Zr  Zr12  1  0.50344700  0.49655300  0.99655300  1
  Zr  Zr13  1  0.99367600  0.00632400  0.50632400  1
  Zr  Zr14  1  0.49367600  0.49367600  0.49367600  1
  Zr  Zr15  1  0.50632400  0.99367600  0.00632400  1
  O  O16  1  0.48933700  0.74379900  0.51249400  1
  O  O17  1  0.51249400  0.48933700  0.74379900  1
  O  O18  1  0.97924500  0.25593800  0.49055800  1
  O  O19  1  0.24406200  0.50944200  0.47924500  1
  O  O20  1  0.75593800  0.00944200  0.02075500  1
  O  O21  1  0.74406200  0.99055800  0.52075500  1
  O  O22  1  0.74379900  0.51249400  0.48933700  1
  O  O23  1  0.25620100  0.01249400  0.01066300  1
  O  O24  1  0.50944200  0.47924500  0.24406200  1
  O  O25  1  0.98933700  0.75620100  0.48750600  1
  O  O26  1  0.99055800  0.52075500  0.74406200  1
  O  O27  1  0.47924500  0.24406200  0.50944200  1
  O  O28  1  0.01066300  0.25620100  0.01249400  1
  O  O29  1  0.48750600  0.98933700  0.75620100  1
  O  O30  1  0.49055800  0.97924500  0.25593800  1
  O  O31  1  0.02075500  0.75593800  0.00944200  1
  O  O32  1  0.52075500  0.74406200  0.99055800  1
  O  O33  1  0.00944200  0.02075500  0.75593800  1
  O  O34  1  0.24379900  0.98750600  0.51066300  1
  O  O35  1  0.01249400  0.01066300  0.25620100  1
  O  O36  1  0.25593800  0.49055800  0.97924500  1
  O  O37  1  0.98750600  0.51066300  0.24379900  1
  O  O38  1  0.51066300  0.24379900  0.98750600  1
  O  O39  1  0.75620100  0.48750600  0.98933700  1
