# generated using pymatgen
data_Bi(BO2)3
_symmetry_space_group_name_H-M   'P 1'
_cell_length_a   11.82212700
_cell_length_b   4.30268800
_cell_length_c   7.33790136
_cell_angle_alpha   88.95204249
_cell_angle_beta   90.00000000
_cell_angle_gamma   90.00000000
_symmetry_Int_Tables_number   1
_chemical_formula_structural   Bi(BO2)3
_chemical_formula_sum   'Bi4 B12 O24'
_cell_volume   373.19403860
_cell_formula_units_Z   4
loop_
 _symmetry_equiv_pos_site_id
 _symmetry_equiv_pos_as_xyz
  1  'x, y, z'
loop_
 _atom_site_type_symbol
 _atom_site_label
 _atom_site_symmetry_multiplicity
 _atom_site_fract_x
 _atom_site_fract_y
 _atom_site_fract_z
 _atom_site_occupancy
  Bi  Bi0  1  0.61378800  0.16351200  0.63171700  1
  Bi  Bi1  1  0.11378800  0.83648800  0.86828300  1
  Bi  Bi2  1  0.88621200  0.16351200  0.13171700  1
  Bi  Bi3  1  0.38621200  0.83648800  0.36828300  1
  B  B4  1  0.09340300  0.79882300  0.36926300  1
  B  B5  1  0.16266400  0.31772400  0.20671900  1
  B  B6  1  0.12508000  0.30920900  0.56547100  1
  B  B7  1  0.33733600  0.31772400  0.70671900  1
  B  B8  1  0.40659700  0.79882300  0.86926300  1
  B  B9  1  0.62508000  0.69079100  0.93452900  1
  B  B10  1  0.66266400  0.68227600  0.29328100  1
  B  B11  1  0.87492000  0.69079100  0.43452900  1
  B  B12  1  0.90659700  0.20117700  0.63073700  1
  B  B13  1  0.59340300  0.20117700  0.13073700  1
  B  B14  1  0.37492000  0.30920900  0.06547100  1
  B  B15  1  0.83733600  0.68227600  0.79328100  1
  O  O16  1  0.84102500  0.34543900  0.77334600  1
  O  O17  1  0.88311500  0.35768600  0.45877400  1
  O  O18  1  0.41865900  0.23098000  0.56086000  1
  O  O19  1  0.08134100  0.23098000  0.06086000  1
  O  O20  1  0.77901400  0.78844900  0.32212300  1
  O  O21  1  0.38311500  0.64231400  0.04122600  1
  O  O22  1  0.61688500  0.35768600  0.95877400  1
  O  O23  1  0.65897500  0.34543900  0.27334600  1
  O  O24  1  0.58134100  0.76902000  0.43914000  1
  O  O25  1  0.47129300  0.19355000  0.17728600  1
  O  O26  1  0.15897500  0.65456100  0.22665400  1
  O  O27  1  0.37232300  0.14619700  0.88315700  1
  O  O28  1  0.11688500  0.64231400  0.54122600  1
  O  O29  1  0.52870700  0.80645000  0.82271400  1
  O  O30  1  0.97129300  0.80645000  0.32271400  1
  O  O31  1  0.91865900  0.76902000  0.93914000  1
  O  O32  1  0.27901400  0.21155100  0.17787700  1
  O  O33  1  0.87232300  0.85380300  0.61684300  1
  O  O34  1  0.02870700  0.19355000  0.67728600  1
  O  O35  1  0.72098600  0.78844900  0.82212300  1
  O  O36  1  0.34102500  0.65456100  0.72665400  1
  O  O37  1  0.22098600  0.21155100  0.67787700  1
  O  O38  1  0.12767700  0.14619700  0.38315700  1
  O  O39  1  0.62767700  0.85380300  0.11684300  1
