# generated using pymatgen
data_Rb3U3Ge2O13
_symmetry_space_group_name_H-M   'P 1'
_cell_length_a   9.92373645
_cell_length_b   9.92373645
_cell_length_c   8.52547900
_cell_angle_alpha   90.00000000
_cell_angle_beta   90.00000000
_cell_angle_gamma   120.00000302
_symmetry_Int_Tables_number   1
_chemical_formula_structural   Rb3U3Ge2O13
_chemical_formula_sum   'Rb6 U6 Ge4 O26'
_cell_volume   727.10955482
_cell_formula_units_Z   2
loop_
 _symmetry_equiv_pos_site_id
 _symmetry_equiv_pos_as_xyz
  1  'x, y, z'
loop_
 _atom_site_type_symbol
 _atom_site_label
 _atom_site_symmetry_multiplicity
 _atom_site_fract_x
 _atom_site_fract_y
 _atom_site_fract_z
 _atom_site_occupancy
  Rb  Rb0  1  0.97138300  0.58401600  0.75000000  1
  Rb  Rb1  1  0.38736700  0.41598400  0.25000000  1
  Rb  Rb2  1  0.58401600  0.97138300  0.25000000  1
  Rb  Rb3  1  0.41598400  0.38736700  0.75000000  1
  Rb  Rb4  1  0.61263300  0.02861700  0.75000000  1
  Rb  Rb5  1  0.02861700  0.61263300  0.25000000  1
  U  U6  1  0.00000000  0.23792300  0.50000000  1
  U  U7  1  0.00000000  0.23792300  0.00000000  1
  U  U8  1  0.23792300  0.00000000  0.50000000  1
  U  U9  1  0.23792300  0.00000000  0.00000000  1
  U  U10  1  0.76207700  0.76207700  0.00000000  1
  U  U11  1  0.76207700  0.76207700  0.50000000  1
  Ge  Ge12  1  0.33333300  0.66666700  0.95707500  1
  Ge  Ge13  1  0.66666700  0.33333300  0.04292500  1
  Ge  Ge14  1  0.66666700  0.33333300  0.45707500  1
  Ge  Ge15  1  0.33333300  0.66666700  0.54292500  1
  O  O16  1  0.82324600  0.31206300  0.52083300  1
  O  O17  1  0.51118300  0.68793700  0.47916700  1
  O  O18  1  0.51118300  0.68793700  0.02083300  1
  O  O19  1  0.48881700  0.17675400  0.97916700  1
  O  O20  1  0.00990900  0.25045200  0.75000000  1
  O  O21  1  0.68793700  0.51118300  0.52083300  1
  O  O22  1  0.75945800  0.74954800  0.25000000  1
  O  O23  1  0.66666700  0.33333300  0.25000000  1
  O  O24  1  0.81632400  0.00000000  0.00000000  1
  O  O25  1  0.68793700  0.51118300  0.97916700  1
  O  O26  1  0.18367600  0.18367600  0.50000000  1
  O  O27  1  0.00000000  0.81632400  0.50000000  1
  O  O28  1  0.81632400  0.00000000  0.50000000  1
  O  O29  1  0.18367600  0.18367600  0.00000000  1
  O  O30  1  0.48881700  0.17675400  0.52083300  1
  O  O31  1  0.31206300  0.82324600  0.02083300  1
  O  O32  1  0.24054200  0.99009100  0.75000000  1
  O  O33  1  0.00000000  0.81632400  0.00000000  1
  O  O34  1  0.31206300  0.82324600  0.47916700  1
  O  O35  1  0.33333300  0.66666700  0.75000000  1
  O  O36  1  0.74954800  0.75945800  0.75000000  1
  O  O37  1  0.17675400  0.48881700  0.47916700  1
  O  O38  1  0.82324600  0.31206300  0.97916700  1
  O  O39  1  0.25045200  0.00990900  0.25000000  1
  O  O40  1  0.99009100  0.24054200  0.25000000  1
  O  O41  1  0.17675400  0.48881700  0.02083300  1
