# generated using pymatgen
data_ScAuO2
_symmetry_space_group_name_H-M   'P 1'
_cell_length_a   3.26874011
_cell_length_b   3.26874011
_cell_length_c   12.30613700
_cell_angle_alpha   90.00000000
_cell_angle_beta   90.00000000
_cell_angle_gamma   120.00000213
_symmetry_Int_Tables_number   1
_chemical_formula_structural   ScAuO2
_chemical_formula_sum   'Sc2 Au2 O4'
_cell_volume   113.87100434
_cell_formula_units_Z   2
loop_
 _symmetry_equiv_pos_site_id
 _symmetry_equiv_pos_as_xyz
  1  'x, y, z'
loop_
 _atom_site_type_symbol
 _atom_site_label
 _atom_site_symmetry_multiplicity
 _atom_site_fract_x
 _atom_site_fract_y
 _atom_site_fract_z
 _atom_site_occupancy
  Sc  Sc0  1  0.00000000  0.00000000  0.00000000  1
  Sc  Sc1  1  0.00000000  0.00000000  0.50000000  1
  Au  Au2  1  0.66666700  0.33333300  0.75000000  1
  Au  Au3  1  0.33333300  0.66666700  0.25000000  1
  O  O4  1  0.33333300  0.66666700  0.41851000  1
  O  O5  1  0.66666700  0.33333300  0.91851000  1
  O  O6  1  0.33333300  0.66666700  0.08149000  1
  O  O7  1  0.66666700  0.33333300  0.58149000  1
