# generated using pymatgen
data_Te2SO7
_symmetry_space_group_name_H-M   'P 1'
_cell_length_a   5.00024700
_cell_length_b   6.94551600
_cell_length_c   8.79615400
_cell_angle_alpha   90.00000000
_cell_angle_beta   90.00000000
_cell_angle_gamma   90.00000000
_symmetry_Int_Tables_number   1
_chemical_formula_structural   Te2SO7
_chemical_formula_sum   'Te4 S2 O14'
_cell_volume   305.48423190
_cell_formula_units_Z   2
loop_
 _symmetry_equiv_pos_site_id
 _symmetry_equiv_pos_as_xyz
  1  'x, y, z'
loop_
 _atom_site_type_symbol
 _atom_site_label
 _atom_site_symmetry_multiplicity
 _atom_site_fract_x
 _atom_site_fract_y
 _atom_site_fract_z
 _atom_site_occupancy
  Te  Te0  1  0.17333500  0.82086500  0.80299300  1
  Te  Te1  1  0.67333500  0.17913500  0.69700700  1
  Te  Te2  1  0.17333500  0.82086500  0.19700700  1
  Te  Te3  1  0.67333500  0.17913500  0.30299300  1
  S  S4  1  0.69526800  0.51070800  0.00000000  1
  S  S5  1  0.19526800  0.48929200  0.50000000  1
  O  O6  1  0.32455300  0.05824200  0.71115400  1
  O  O7  1  0.27314300  0.93277100  0.00000000  1
  O  O8  1  0.32455300  0.05824200  0.28884600  1
  O  O9  1  0.54646200  0.55758800  0.14042100  1
  O  O10  1  0.82455300  0.94175800  0.78884600  1
  O  O11  1  0.54646200  0.55758800  0.85957900  1
  O  O12  1  0.82455300  0.94175800  0.21115400  1
  O  O13  1  0.04646200  0.44241200  0.64042100  1
  O  O14  1  0.04646200  0.44241200  0.35957900  1
  O  O15  1  0.77314300  0.06722900  0.50000000  1
  O  O16  1  0.27456400  0.69494600  0.50000000  1
  O  O17  1  0.95332500  0.63528100  0.00000000  1
  O  O18  1  0.77456400  0.30505400  0.00000000  1
  O  O19  1  0.45332500  0.36471900  0.50000000  1
