# generated using pymatgen
data_GdTaO4
_symmetry_space_group_name_H-M   'P 1'
_cell_length_a   6.63576257
_cell_length_b   6.63576257
_cell_length_c   5.12911077
_cell_angle_alpha   69.71555714
_cell_angle_beta   69.71555714
_cell_angle_gamma   115.25049859
_symmetry_Int_Tables_number   1
_chemical_formula_structural   GdTaO4
_chemical_formula_sum   'Gd2 Ta2 O8'
_cell_volume   155.67709178
_cell_formula_units_Z   2
loop_
 _symmetry_equiv_pos_site_id
 _symmetry_equiv_pos_as_xyz
  1  'x, y, z'
loop_
 _atom_site_type_symbol
 _atom_site_label
 _atom_site_symmetry_multiplicity
 _atom_site_fract_x
 _atom_site_fract_y
 _atom_site_fract_z
 _atom_site_occupancy
  Gd  Gd0  1  0.63179100  0.36820900  0.75000000  1
  Gd  Gd1  1  0.36820900  0.63179100  0.25000000  1
  Ta  Ta2  1  0.10027100  0.89972900  0.75000000  1
  Ta  Ta3  1  0.89972900  0.10027100  0.25000000  1
  O  O4  1  0.79098600  0.72757600  0.20812600  1
  O  O5  1  0.27242400  0.20901400  0.29187400  1
  O  O6  1  0.20901400  0.27242400  0.79187400  1
  O  O7  1  0.72757600  0.79098600  0.70812600  1
  O  O8  1  0.36229900  0.94671500  0.84041700  1
  O  O9  1  0.05328500  0.63770100  0.65958300  1
  O  O10  1  0.63770100  0.05328500  0.15958300  1
  O  O11  1  0.94671500  0.36229900  0.34041700  1
