# generated using pymatgen
data_LaH4C4NO8
_symmetry_space_group_name_H-M   'P 1'
_cell_length_a   15.95645600
_cell_length_b   5.88515400
_cell_length_c   8.89035191
_cell_angle_alpha   87.90720657
_cell_angle_beta   90.00000000
_cell_angle_gamma   90.00000000
_symmetry_Int_Tables_number   1
_chemical_formula_structural   LaH4C4NO8
_chemical_formula_sum   'La4 H16 C16 N4 O32'
_cell_volume   834.30231681
_cell_formula_units_Z   4
loop_
 _symmetry_equiv_pos_site_id
 _symmetry_equiv_pos_as_xyz
  1  'x, y, z'
loop_
 _atom_site_type_symbol
 _atom_site_label
 _atom_site_symmetry_multiplicity
 _atom_site_fract_x
 _atom_site_fract_y
 _atom_site_fract_z
 _atom_site_occupancy
  La  La0  1  0.59962100  0.92430800  0.82136400  1
  La  La1  1  0.90037900  0.92430800  0.32136400  1
  La  La2  1  0.40037900  0.07569200  0.17863600  1
  La  La3  1  0.09962100  0.07569200  0.67863600  1
  H  H4  1  0.09102800  0.68293900  0.17374400  1
  H  H5  1  0.88886600  0.55051000  0.92407800  1
  H  H6  1  0.36322200  0.45344200  0.76119600  1
  H  H7  1  0.11113400  0.44949000  0.07592200  1
  H  H8  1  0.69111500  0.37931300  0.36530200  1
  H  H9  1  0.59102800  0.31706100  0.32625600  1
  H  H10  1  0.90897200  0.31706100  0.82625600  1
  H  H11  1  0.80888500  0.37931300  0.86530200  1
  H  H12  1  0.40897200  0.68293900  0.67374400  1
  H  H13  1  0.13677800  0.45344200  0.26119600  1
  H  H14  1  0.63677800  0.54655800  0.23880400  1
  H  H15  1  0.38886600  0.44949000  0.57592200  1
  H  H16  1  0.86322200  0.54655800  0.73880400  1
  H  H17  1  0.30888500  0.62068700  0.63469800  1
  H  H18  1  0.61113400  0.55051000  0.42407800  1
  H  H19  1  0.19111500  0.62068700  0.13469800  1
  C  C20  1  0.47491600  0.09520300  0.53866200  1
  C  C21  1  0.72706800  0.83687100  0.12213600  1
  C  C22  1  0.77293200  0.83687100  0.62213600  1
  C  C23  1  0.97491600  0.90479700  0.96133800  1
  C  C24  1  0.27293200  0.16312900  0.87786400  1
  C  C25  1  0.97170400  0.41928000  0.45547100  1
  C  C26  1  0.47170400  0.58072000  0.04452900  1
  C  C27  1  0.23732500  0.94063900  0.95277200  1
  C  C28  1  0.73732500  0.05936100  0.54722800  1
  C  C29  1  0.02829600  0.58072000  0.54452900  1
  C  C30  1  0.52508400  0.90479700  0.46133800  1
  C  C31  1  0.22706800  0.16312900  0.37786400  1
  C  C32  1  0.26267500  0.94063900  0.45277200  1
  C  C33  1  0.02508400  0.09520300  0.03866200  1
  C  C34  1  0.76267500  0.05936100  0.04722800  1
  C  C35  1  0.52829600  0.41928000  0.95547100  1
  N  N36  1  0.36726800  0.55217800  0.66187100  1
  N  N37  1  0.86726800  0.44782200  0.83812900  1
  N  N38  1  0.63273200  0.44782200  0.33812900  1
  N  N39  1  0.13273200  0.55217800  0.16187100  1
  O  O40  1  0.65942200  0.75757600  0.06972900  1
  O  O41  1  0.43267100  0.50042000  0.15725100  1
  O  O42  1  0.97428400  0.91094800  0.81861700  1
  O  O43  1  0.34057800  0.24242400  0.93027100  1
  O  O44  1  0.72419100  0.14424700  0.93345300  1
  O  O45  1  0.84057800  0.75757600  0.56972900  1
  O  O46  1  0.82844900  0.13898100  0.10492100  1
  O  O47  1  0.96970100  0.21252600  0.50429100  1
  O  O48  1  0.56155900  0.75904200  0.54721000  1
  O  O49  1  0.26791500  0.25088000  0.26870200  1
  O  O50  1  0.27580900  0.85575300  0.06654700  1
  O  O51  1  0.93267100  0.49958000  0.34274900  1
  O  O52  1  0.93844100  0.75904200  0.04721000  1
  O  O53  1  0.47428400  0.08905200  0.68138300  1
  O  O54  1  0.15942200  0.24242400  0.43027100  1
  O  O55  1  0.03029900  0.78747400  0.49570900  1
  O  O56  1  0.06732900  0.50042000  0.65725100  1
  O  O57  1  0.52571600  0.91094800  0.31861700  1
  O  O58  1  0.77580900  0.14424700  0.43345300  1
  O  O59  1  0.32844900  0.86101900  0.39507900  1
  O  O60  1  0.73208500  0.74912000  0.73129800  1
  O  O61  1  0.02571600  0.08905200  0.18138300  1
  O  O62  1  0.06155900  0.24095800  0.95279000  1
  O  O63  1  0.46970100  0.78747400  0.99570900  1
  O  O64  1  0.43844100  0.24095800  0.45279000  1
  O  O65  1  0.22419100  0.85575300  0.56654700  1
  O  O66  1  0.67155100  0.13898100  0.60492100  1
  O  O67  1  0.56732900  0.49958000  0.84274900  1
  O  O68  1  0.53029900  0.21252600  0.00429100  1
  O  O69  1  0.23208500  0.25088000  0.76870200  1
  O  O70  1  0.76791500  0.74912000  0.23129800  1
  O  O71  1  0.17155100  0.86101900  0.89507900  1
