# generated using pymatgen
data_Cd(PO3)2
_symmetry_space_group_name_H-M   'P 1'
_cell_length_a   7.56141000
_cell_length_b   7.57123400
_cell_length_c   8.68226900
_cell_angle_alpha   90.00000000
_cell_angle_beta   90.00000000
_cell_angle_gamma   90.00000000
_symmetry_Int_Tables_number   1
_chemical_formula_structural   Cd(PO3)2
_chemical_formula_sum   'Cd4 P8 O24'
_cell_volume   497.05299333
_cell_formula_units_Z   4
loop_
 _symmetry_equiv_pos_site_id
 _symmetry_equiv_pos_as_xyz
  1  'x, y, z'
loop_
 _atom_site_type_symbol
 _atom_site_label
 _atom_site_symmetry_multiplicity
 _atom_site_fract_x
 _atom_site_fract_y
 _atom_site_fract_z
 _atom_site_occupancy
  Cd  Cd0  1  0.01902600  0.14230300  0.21338200  1
  Cd  Cd1  1  0.98097400  0.64230300  0.28661800  1
  Cd  Cd2  1  0.51902600  0.35769700  0.78661800  1
  Cd  Cd3  1  0.48097400  0.85769700  0.71338200  1
  P  P4  1  0.87875600  0.06067300  0.84318600  1
  P  P5  1  0.37875600  0.43932700  0.15681400  1
  P  P6  1  0.62124400  0.93932700  0.34318600  1
  P  P7  1  0.15363600  0.16194300  0.59984900  1
  P  P8  1  0.12124400  0.56067300  0.65681400  1
  P  P9  1  0.65363600  0.33805700  0.40015100  1
  P  P10  1  0.34636400  0.83805700  0.09984900  1
  P  P11  1  0.84636400  0.66194300  0.90015100  1
  O  O12  1  0.15211300  0.09689300  0.43819800  1
  O  O13  1  0.04905200  0.68082600  0.53493100  1
  O  O14  1  0.67441500  0.64259500  0.81257900  1
  O  O15  1  0.54905200  0.81917400  0.46506900  1
  O  O16  1  0.17441500  0.85740500  0.18742100  1
  O  O17  1  0.49580700  0.43588500  0.31095000  1
  O  O18  1  0.91195400  0.86267500  0.89873900  1
  O  O19  1  0.99580700  0.06411500  0.68905000  1
  O  O20  1  0.50419300  0.93588500  0.18905000  1
  O  O21  1  0.45094800  0.31917400  0.03493100  1
  O  O22  1  0.31211800  0.58391600  0.70589400  1
  O  O23  1  0.95094800  0.18082600  0.96506900  1
  O  O24  1  0.84788700  0.59689300  0.06180200  1
  O  O25  1  0.18788200  0.41608400  0.20589400  1
  O  O26  1  0.82558500  0.35740500  0.31257900  1
  O  O27  1  0.00419300  0.56411500  0.81095000  1
  O  O28  1  0.65211300  0.40310700  0.56180200  1
  O  O29  1  0.32558500  0.14259500  0.68742100  1
  O  O30  1  0.58804600  0.13732500  0.39873900  1
  O  O31  1  0.81211800  0.91608400  0.29410600  1
  O  O32  1  0.68788200  0.08391600  0.79410600  1
  O  O33  1  0.41195400  0.63732500  0.10126100  1
  O  O34  1  0.34788700  0.90310700  0.93819800  1
  O  O35  1  0.08804600  0.36267500  0.60126100  1
