# generated using pymatgen
data_SbAs3(Se2F3)2
_symmetry_space_group_name_H-M   'P 1'
_cell_length_a   9.97960300
_cell_length_b   6.45269700
_cell_length_c   10.77324510
_cell_angle_alpha   87.64149053
_cell_angle_beta   90.00000000
_cell_angle_gamma   90.00000000
_symmetry_Int_Tables_number   1
_chemical_formula_structural   SbAs3(Se2F3)2
_chemical_formula_sum   'Sb2 As6 Se8 F12'
_cell_volume   693.15925716
_cell_formula_units_Z   2
loop_
 _symmetry_equiv_pos_site_id
 _symmetry_equiv_pos_as_xyz
  1  'x, y, z'
loop_
 _atom_site_type_symbol
 _atom_site_label
 _atom_site_symmetry_multiplicity
 _atom_site_fract_x
 _atom_site_fract_y
 _atom_site_fract_z
 _atom_site_occupancy
  Sb  Sb0  1  0.75000000  0.49905900  0.83257200  1
  Sb  Sb1  1  0.25000000  0.50094100  0.16742800  1
  As  As2  1  0.25000000  0.05855700  0.51750400  1
  As  As3  1  0.12401900  0.97393800  0.84457900  1
  As  As4  1  0.62401900  0.02606200  0.15542100  1
  As  As5  1  0.75000000  0.94144300  0.48249600  1
  As  As6  1  0.87598100  0.02606200  0.15542100  1
  As  As7  1  0.37598100  0.97393800  0.84457900  1
  Se  Se8  1  0.06578900  0.13630600  0.65258500  1
  Se  Se9  1  0.43421100  0.13630600  0.65258500  1
  Se  Se10  1  0.75000000  0.34056300  0.22569700  1
  Se  Se11  1  0.25000000  0.65943700  0.77430300  1
  Se  Se12  1  0.56578900  0.86369400  0.34741500  1
  Se  Se13  1  0.75000000  0.31427500  0.44268700  1
  Se  Se14  1  0.93421100  0.86369400  0.34741500  1
  Se  Se15  1  0.25000000  0.68572500  0.55731300  1
  F  F16  1  0.75000000  0.27700300  0.71719900  1
  F  F17  1  0.61522600  0.35190400  0.92935900  1
  F  F18  1  0.38662800  0.36109400  0.26453100  1
  F  F19  1  0.75000000  0.71770200  0.94856600  1
  F  F20  1  0.11337200  0.36109400  0.26453100  1
  F  F21  1  0.25000000  0.28229800  0.05143400  1
  F  F22  1  0.11522600  0.64809600  0.07064100  1
  F  F23  1  0.61337200  0.63890600  0.73546900  1
  F  F24  1  0.88662800  0.63890600  0.73546900  1
  F  F25  1  0.88477400  0.35190400  0.92935900  1
  F  F26  1  0.38477400  0.64809600  0.07064100  1
  F  F27  1  0.25000000  0.72299700  0.28280100  1
