# generated using pymatgen
data_Hg2Pb(SI)2
_symmetry_space_group_name_H-M   'P 1'
_cell_length_a   13.81698900
_cell_length_b   13.81698900
_cell_length_c   4.71067600
_cell_angle_alpha   90.00000000
_cell_angle_beta   90.00000000
_cell_angle_gamma   90.00000000
_symmetry_Int_Tables_number   1
_chemical_formula_structural   Hg2Pb(SI)2
_chemical_formula_sum   'Hg8 Pb4 S8 I8'
_cell_volume   899.31131608
_cell_formula_units_Z   4
loop_
 _symmetry_equiv_pos_site_id
 _symmetry_equiv_pos_as_xyz
  1  'x, y, z'
loop_
 _atom_site_type_symbol
 _atom_site_label
 _atom_site_symmetry_multiplicity
 _atom_site_fract_x
 _atom_site_fract_y
 _atom_site_fract_z
 _atom_site_occupancy
  Hg  Hg0  1  0.66764000  0.58621200  0.00000000  1
  Hg  Hg1  1  0.33236000  0.41378800  0.00000000  1
  Hg  Hg2  1  0.16764000  0.91378800  0.00000000  1
  Hg  Hg3  1  0.91378800  0.83236000  0.00000000  1
  Hg  Hg4  1  0.83236000  0.08621200  0.00000000  1
  Hg  Hg5  1  0.08621200  0.16764000  0.00000000  1
  Hg  Hg6  1  0.58621200  0.33236000  0.00000000  1
  Hg  Hg7  1  0.41378800  0.66764000  0.00000000  1
  Pb  Pb8  1  0.86335000  0.36335000  0.50000000  1
  Pb  Pb9  1  0.36335000  0.13665000  0.50000000  1
  Pb  Pb10  1  0.63665000  0.86335000  0.50000000  1
  Pb  Pb11  1  0.13665000  0.63665000  0.50000000  1
  S  S12  1  0.57538700  0.73691300  0.00000000  1
  S  S13  1  0.73691300  0.42461300  0.00000000  1
  S  S14  1  0.23691300  0.07538700  0.00000000  1
  S  S15  1  0.26308700  0.57538700  0.00000000  1
  S  S16  1  0.42461300  0.26308700  0.00000000  1
  S  S17  1  0.92461300  0.23691300  0.00000000  1
  S  S18  1  0.07538700  0.76308700  0.00000000  1
  S  S19  1  0.76308700  0.92461300  0.00000000  1
  I  I20  1  0.69435200  0.19435200  0.50000000  1
  I  I21  1  0.50000000  0.00000000  0.00000000  1
  I  I22  1  0.80564800  0.69435200  0.50000000  1
  I  I23  1  0.30564800  0.80564800  0.50000000  1
  I  I24  1  0.00000000  0.00000000  0.50000000  1
  I  I25  1  0.19435200  0.30564800  0.50000000  1
  I  I26  1  0.00000000  0.50000000  0.00000000  1
  I  I27  1  0.50000000  0.50000000  0.50000000  1
