# generated using pymatgen
data_LaSO
_symmetry_space_group_name_H-M   'P 1'
_cell_length_a   5.94638200
_cell_length_b   5.95036800
_cell_length_c   13.33153000
_cell_angle_alpha   90.00000000
_cell_angle_beta   90.00000000
_cell_angle_gamma   90.00000000
_symmetry_Int_Tables_number   1
_chemical_formula_structural   LaSO
_chemical_formula_sum   'La8 S8 O8'
_cell_volume   471.71167461
_cell_formula_units_Z   8
loop_
 _symmetry_equiv_pos_site_id
 _symmetry_equiv_pos_as_xyz
  1  'x, y, z'
loop_
 _atom_site_type_symbol
 _atom_site_label
 _atom_site_symmetry_multiplicity
 _atom_site_fract_x
 _atom_site_fract_y
 _atom_site_fract_z
 _atom_site_occupancy
  La  La0  1  0.49849100  0.25005100  0.08885100  1
  La  La1  1  0.50150900  0.74994900  0.58885100  1
  La  La2  1  0.00150900  0.25005100  0.91114900  1
  La  La3  1  0.00150900  0.25005100  0.58885100  1
  La  La4  1  0.49849100  0.25005100  0.41114900  1
  La  La5  1  0.50150900  0.74994900  0.91114900  1
  La  La6  1  0.99849100  0.74994900  0.41114900  1
  La  La7  1  0.99849100  0.74994900  0.08885100  1
  S  S8  1  0.88176100  0.62548500  0.75000000  1
  S  S9  1  0.13280300  0.87613800  0.75000000  1
  S  S10  1  0.61823900  0.62548500  0.25000000  1
  S  S11  1  0.36719700  0.87613800  0.25000000  1
  S  S12  1  0.63280300  0.12386200  0.75000000  1
  S  S13  1  0.86719700  0.12386200  0.25000000  1
  S  S14  1  0.11823900  0.37451500  0.25000000  1
  S  S15  1  0.38176100  0.37451500  0.75000000  1
  O  O16  1  0.25000000  0.00489200  0.00000000  1
  O  O17  1  0.75000000  0.99510800  0.50000000  1
  O  O18  1  0.25000000  0.00489200  0.50000000  1
  O  O19  1  0.75000000  0.49444900  0.00000000  1
  O  O20  1  0.25000000  0.50555100  0.50000000  1
  O  O21  1  0.75000000  0.49444900  0.50000000  1
  O  O22  1  0.75000000  0.99510800  0.00000000  1
  O  O23  1  0.25000000  0.50555100  0.00000000  1
