# generated using pymatgen
data_ZrP2O7
_symmetry_space_group_name_H-M   'P 1'
_cell_length_a   5.48248300
_cell_length_b   6.86343800
_cell_length_c   8.57016300
_cell_angle_alpha   90.00000000
_cell_angle_beta   90.00000000
_cell_angle_gamma   90.00000000
_symmetry_Int_Tables_number   1
_chemical_formula_structural   ZrP2O7
_chemical_formula_sum   'Zr2 P4 O14'
_cell_volume   322.48393956
_cell_formula_units_Z   2
loop_
 _symmetry_equiv_pos_site_id
 _symmetry_equiv_pos_as_xyz
  1  'x, y, z'
loop_
 _atom_site_type_symbol
 _atom_site_label
 _atom_site_symmetry_multiplicity
 _atom_site_fract_x
 _atom_site_fract_y
 _atom_site_fract_z
 _atom_site_occupancy
  Zr  Zr0  1  0.00000000  0.50000000  0.00000000  1
  Zr  Zr1  1  0.50000000  0.00000000  0.50000000  1
  P  P2  1  0.00000000  0.31195900  0.39314900  1
  P  P3  1  0.50000000  0.81195900  0.10685100  1
  P  P4  1  0.50000000  0.18804100  0.89314900  1
  P  P5  1  0.00000000  0.68804100  0.60685100  1
  O  O6  1  0.26912800  0.69904800  0.06731700  1
  O  O7  1  0.50000000  0.88299200  0.27507100  1
  O  O8  1  0.00000000  0.38299200  0.22492900  1
  O  O9  1  0.23087200  0.19904800  0.43268300  1
  O  O10  1  0.00000000  0.61700800  0.77507100  1
  O  O11  1  0.73087200  0.30095200  0.93268300  1
  O  O12  1  0.23087200  0.80095200  0.56731700  1
  O  O13  1  0.50000000  0.11700800  0.72492900  1
  O  O14  1  0.76912800  0.80095200  0.56731700  1
  O  O15  1  0.26912800  0.30095200  0.93268300  1
  O  O16  1  0.00000000  0.50000000  0.50000000  1
  O  O17  1  0.76912800  0.19904800  0.43268300  1
  O  O18  1  0.73087200  0.69904800  0.06731700  1
  O  O19  1  0.50000000  0.00000000  0.00000000  1
