# generated using pymatgen
data_Na2Bi5AuO11
_symmetry_space_group_name_H-M   'P 1'
_cell_length_a   12.49570500
_cell_length_b   12.49570500
_cell_length_c   3.91805000
_cell_angle_alpha   90.00000000
_cell_angle_beta   90.00000000
_cell_angle_gamma   90.00000000
_symmetry_Int_Tables_number   1
_chemical_formula_structural   Na2Bi5AuO11
_chemical_formula_sum   'Na4 Bi10 Au2 O22'
_cell_volume   611.77468416
_cell_formula_units_Z   2
loop_
 _symmetry_equiv_pos_site_id
 _symmetry_equiv_pos_as_xyz
  1  'x, y, z'
loop_
 _atom_site_type_symbol
 _atom_site_label
 _atom_site_symmetry_multiplicity
 _atom_site_fract_x
 _atom_site_fract_y
 _atom_site_fract_z
 _atom_site_occupancy
  Na  Na0  1  0.29607900  0.20392100  0.00000000  1
  Na  Na1  1  0.20392100  0.70392100  0.00000000  1
  Na  Na2  1  0.79607900  0.29607900  0.00000000  1
  Na  Na3  1  0.70392100  0.79607900  0.00000000  1
  Bi  Bi4  1  0.45060700  0.73054800  0.50000000  1
  Bi  Bi5  1  0.04939300  0.23054800  0.50000000  1
  Bi  Bi6  1  0.95060700  0.76945200  0.50000000  1
  Bi  Bi7  1  0.54939300  0.26945200  0.50000000  1
  Bi  Bi8  1  0.26945200  0.45060700  0.50000000  1
  Bi  Bi9  1  0.76945200  0.04939300  0.50000000  1
  Bi  Bi10  1  0.73054800  0.54939300  0.50000000  1
  Bi  Bi11  1  0.50000000  0.00000000  0.00000000  1
  Bi  Bi12  1  0.00000000  0.50000000  0.00000000  1
  Bi  Bi13  1  0.23054800  0.95060700  0.50000000  1
  Au  Au14  1  0.00000000  0.00000000  0.00000000  1
  Au  Au15  1  0.50000000  0.50000000  0.00000000  1
  O  O16  1  0.49670400  0.17153300  0.00000000  1
  O  O17  1  0.39124700  0.62220200  0.00000000  1
  O  O18  1  0.82846700  0.49670400  0.00000000  1
  O  O19  1  0.87779800  0.10875300  0.00000000  1
  O  O20  1  0.17153300  0.50329600  0.00000000  1
  O  O21  1  0.28824800  0.78824800  0.50000000  1
  O  O22  1  0.21175200  0.28824800  0.50000000  1
  O  O23  1  0.67153300  0.99670400  0.00000000  1
  O  O24  1  0.89124700  0.87779800  0.00000000  1
  O  O25  1  0.78824800  0.71175200  0.50000000  1
  O  O26  1  0.50329600  0.82846700  0.00000000  1
  O  O27  1  0.60875300  0.37779800  0.00000000  1
  O  O28  1  0.12220200  0.89124700  0.00000000  1
  O  O29  1  0.00000000  0.50000000  0.50000000  1
  O  O30  1  0.37779800  0.39124700  0.00000000  1
  O  O31  1  0.00329600  0.67153300  0.00000000  1
  O  O32  1  0.99670400  0.32846700  0.00000000  1
  O  O33  1  0.71175200  0.21175200  0.50000000  1
  O  O34  1  0.10875300  0.12220200  0.00000000  1
  O  O35  1  0.50000000  0.00000000  0.50000000  1
  O  O36  1  0.32846700  0.00329600  0.00000000  1
  O  O37  1  0.62220200  0.60875300  0.00000000  1
