# generated using pymatgen
data_KPO3
_symmetry_space_group_name_H-M   'P 1'
_cell_length_a   4.59309500
_cell_length_b   11.60974600
_cell_length_c   14.23297852
_cell_angle_alpha   64.23265313
_cell_angle_beta   90.00000000
_cell_angle_gamma   90.00000000
_symmetry_Int_Tables_number   1
_chemical_formula_structural   KPO3
_chemical_formula_sum   'K8 P8 O24'
_cell_volume   683.50202822
_cell_formula_units_Z   8
loop_
 _symmetry_equiv_pos_site_id
 _symmetry_equiv_pos_as_xyz
  1  'x, y, z'
loop_
 _atom_site_type_symbol
 _atom_site_label
 _atom_site_symmetry_multiplicity
 _atom_site_fract_x
 _atom_site_fract_y
 _atom_site_fract_z
 _atom_site_occupancy
  K  K0  1  0.78292900  0.93148600  0.36870000  1
  K  K1  1  0.23743200  0.59556500  0.57273400  1
  K  K2  1  0.28292900  0.06851400  0.13130000  1
  K  K3  1  0.21707100  0.06851400  0.63130000  1
  K  K4  1  0.73743200  0.40443500  0.92726600  1
  K  K5  1  0.76256800  0.40443500  0.42726600  1
  K  K6  1  0.71707100  0.93148600  0.86870000  1
  K  K7  1  0.26256800  0.59556500  0.07273400  1
  P  P8  1  0.19259700  0.21500200  0.83719300  1
  P  P9  1  0.69121400  0.30364600  0.69061400  1
  P  P10  1  0.80878600  0.30364600  0.19061400  1
  P  P11  1  0.80740300  0.78499800  0.16280700  1
  P  P12  1  0.30740300  0.21500200  0.33719300  1
  P  P13  1  0.30878600  0.69635400  0.30938600  1
  P  P14  1  0.69259700  0.78499800  0.66280700  1
  P  P15  1  0.19121400  0.69635400  0.80938600  1
  O  O16  1  0.71781800  0.91932900  0.65084900  1
  O  O17  1  0.86532100  0.68666500  0.76843700  1
  O  O18  1  0.78218200  0.91932900  0.15084900  1
  O  O19  1  0.63467900  0.68666500  0.26843700  1
  O  O20  1  0.71691500  0.19428400  0.66155600  1
  O  O21  1  0.36520900  0.72846500  0.70030700  1
  O  O22  1  0.21781800  0.08067100  0.84915100  1
  O  O23  1  0.73754600  0.75285400  0.07406300  1
  O  O24  1  0.63479100  0.27153500  0.29969300  1
  O  O25  1  0.86520900  0.27153500  0.79969300  1
  O  O26  1  0.73925500  0.43653800  0.11067600  1
  O  O27  1  0.26074500  0.56346200  0.88932400  1
  O  O28  1  0.78308500  0.19428400  0.16155600  1
  O  O29  1  0.26245400  0.24714600  0.92593700  1
  O  O30  1  0.28218200  0.08067100  0.34915100  1
  O  O31  1  0.13467900  0.31333500  0.23156300  1
  O  O32  1  0.23754600  0.24714600  0.42593700  1
  O  O33  1  0.76074500  0.43653800  0.61067600  1
  O  O34  1  0.13479100  0.72846500  0.20030700  1
  O  O35  1  0.76245400  0.75285400  0.57406300  1
  O  O36  1  0.23925500  0.56346200  0.38932400  1
  O  O37  1  0.36532100  0.31333500  0.73156300  1
  O  O38  1  0.21691500  0.80571600  0.83844400  1
  O  O39  1  0.28308500  0.80571600  0.33844400  1
