# generated using pymatgen
data_SrBPO5
_symmetry_space_group_name_H-M   'P 1'
_cell_length_a   6.93536451
_cell_length_b   6.93536451
_cell_length_c   6.89567700
_cell_angle_alpha   90.00000000
_cell_angle_beta   90.00000000
_cell_angle_gamma   120.00000489
_symmetry_Int_Tables_number   1
_chemical_formula_structural   SrBPO5
_chemical_formula_sum   'Sr3 B3 P3 O15'
_cell_volume   287.24078476
_cell_formula_units_Z   3
loop_
 _symmetry_equiv_pos_site_id
 _symmetry_equiv_pos_as_xyz
  1  'x, y, z'
loop_
 _atom_site_type_symbol
 _atom_site_label
 _atom_site_symmetry_multiplicity
 _atom_site_fract_x
 _atom_site_fract_y
 _atom_site_fract_z
 _atom_site_occupancy
  Sr  Sr0  1  0.00000000  0.39411000  0.83333300  1
  Sr  Sr1  1  0.39411000  0.00000000  0.16666700  1
  Sr  Sr2  1  0.60589000  0.60589000  0.50000000  1
  B  B3  1  0.09846900  0.09846900  0.50000000  1
  B  B4  1  0.00000000  0.90153100  0.83333300  1
  B  B5  1  0.90153100  0.00000000  0.16666700  1
  P  P6  1  0.59551200  0.59551200  0.00000000  1
  P  P7  1  0.40448800  0.00000000  0.66666700  1
  P  P8  1  0.00000000  0.40448800  0.33333300  1
  O  O9  1  0.95683300  0.00000000  0.66666700  1
  O  O10  1  0.86201000  0.44883600  0.47758600  1
  O  O11  1  0.04316700  0.04316700  0.00000000  1
  O  O12  1  0.85074000  0.18753700  0.20476200  1
  O  O13  1  0.81246300  0.66320300  0.87142800  1
  O  O14  1  0.33679700  0.14926000  0.53809500  1
  O  O15  1  0.41317400  0.55116400  0.85574700  1
  O  O16  1  0.58682600  0.13799000  0.81091900  1
  O  O17  1  0.18753700  0.85074000  0.79523800  1
  O  O18  1  0.66320300  0.81246300  0.12857200  1
  O  O19  1  0.55116400  0.41317400  0.14425300  1
  O  O20  1  0.44883600  0.86201000  0.52241400  1
  O  O21  1  0.00000000  0.95683300  0.33333300  1
  O  O22  1  0.13799000  0.58682600  0.18908100  1
  O  O23  1  0.14926000  0.33679700  0.46190500  1
