# generated using pymatgen
data_SiO2
_symmetry_space_group_name_H-M   'P 1'
_cell_length_a   7.51545400
_cell_length_b   14.27745200
_cell_length_c   18.92163500
_cell_angle_alpha   90.00000000
_cell_angle_beta   90.00000000
_cell_angle_gamma   90.00000000
_symmetry_Int_Tables_number   1
_chemical_formula_structural   SiO2
_chemical_formula_sum   'Si36 O72'
_cell_volume   2030.32045643
_cell_formula_units_Z   36
loop_
 _symmetry_equiv_pos_site_id
 _symmetry_equiv_pos_as_xyz
  1  'x, y, z'
loop_
 _atom_site_type_symbol
 _atom_site_label
 _atom_site_symmetry_multiplicity
 _atom_site_fract_x
 _atom_site_fract_y
 _atom_site_fract_z
 _atom_site_occupancy
  Si  Si0  1  0.22182900  0.69735400  0.66690100  1
  Si  Si1  1  0.72182900  0.80264600  0.16690100  1
  Si  Si2  1  0.20797200  0.99950200  0.77331900  1
  Si  Si3  1  0.00000000  0.50000000  0.84760800  1
  Si  Si4  1  0.51127800  0.79943500  0.58310400  1
  Si  Si5  1  0.00000000  0.50000000  0.15239200  1
  Si  Si6  1  0.98872200  0.29943500  0.08310400  1
  Si  Si7  1  0.51127800  0.79943500  0.41689600  1
  Si  Si8  1  0.19041600  0.29228800  0.31732200  1
  Si  Si9  1  0.98872200  0.29943500  0.91689600  1
  Si  Si10  1  0.80958400  0.70771200  0.31732200  1
  Si  Si11  1  0.77817100  0.30264600  0.66690100  1
  Si  Si12  1  0.27817100  0.19735400  0.16690100  1
  Si  Si13  1  0.30958400  0.79228800  0.81732200  1
  Si  Si14  1  0.69041600  0.20771200  0.18267800  1
  Si  Si15  1  0.01127800  0.70056500  0.08310400  1
  Si  Si16  1  0.30958400  0.79228800  0.18267800  1
  Si  Si17  1  0.48872200  0.20056500  0.58310400  1
  Si  Si18  1  0.70797200  0.50049800  0.27331900  1
  Si  Si19  1  0.69041600  0.20771200  0.81732200  1
  Si  Si20  1  0.29202800  0.49950200  0.27331900  1
  Si  Si21  1  0.48872200  0.20056500  0.41689600  1
  Si  Si22  1  0.29202800  0.49950200  0.72668100  1
  Si  Si23  1  0.79202800  0.00049800  0.77331900  1
  Si  Si24  1  0.22182900  0.69735400  0.33309900  1
  Si  Si25  1  0.50000000  0.00000000  0.34760800  1
  Si  Si26  1  0.19041600  0.29228800  0.68267800  1
  Si  Si27  1  0.27817100  0.19735400  0.83309900  1
  Si  Si28  1  0.80958400  0.70771200  0.68267800  1
  Si  Si29  1  0.70797200  0.50049800  0.72668100  1
  Si  Si30  1  0.20797200  0.99950200  0.22668100  1
  Si  Si31  1  0.72182900  0.80264600  0.83309900  1
  Si  Si32  1  0.01127800  0.70056500  0.91689600  1
  Si  Si33  1  0.79202800  0.00049800  0.22668100  1
  Si  Si34  1  0.77817100  0.30264600  0.33309900  1
  Si  Si35  1  0.50000000  0.00000000  0.65239200  1
  O  O36  1  0.83301900  0.76154900  0.89979700  1
  O  O37  1  0.75776600  0.59735600  0.68645200  1
  O  O38  1  0.17938100  0.73912800  0.87188200  1
  O  O39  1  0.79502100  0.75323200  0.76117800  1
  O  O40  1  0.82061900  0.26087200  0.87188200  1
  O  O41  1  0.98749100  0.27994700  0.65469600  1
  O  O42  1  0.44291700  0.21033000  0.50000000  1
  O  O43  1  0.70497900  0.25323200  0.26117800  1
  O  O44  1  0.29502100  0.74676800  0.73882200  1
  O  O45  1  0.51250900  0.77994700  0.84530400  1
  O  O46  1  0.83301900  0.76154900  0.10020300  1
  O  O47  1  0.47676800  0.90880700  0.39761000  1
  O  O48  1  0.75153400  0.91542900  0.17176000  1
  O  O49  1  0.79502100  0.75323200  0.23882200  1
  O  O50  1  0.66698100  0.26154900  0.39979700  1
  O  O51  1  0.20497900  0.24676800  0.76117800  1
  O  O52  1  0.24846600  0.08457100  0.82824000  1
  O  O53  1  0.29502100  0.74676800  0.26117800  1
  O  O54  1  0.24223400  0.40264400  0.31354800  1
  O  O55  1  0.50000000  0.50000000  0.24995600  1
  O  O56  1  0.67938100  0.76087200  0.37188200  1
  O  O57  1  0.74846600  0.41542900  0.67176000  1
  O  O58  1  0.17569300  0.51290000  0.20166900  1
  O  O59  1  0.00000000  0.00000000  0.25004400  1
  O  O60  1  0.20497900  0.24676800  0.23882200  1
  O  O61  1  0.97676800  0.59119300  0.89761000  1
  O  O62  1  0.48749100  0.22005300  0.84530400  1
  O  O63  1  0.74846600  0.41542900  0.32824000  1
  O  O64  1  0.25153400  0.58457100  0.67176000  1
  O  O65  1  0.17938100  0.73912800  0.12811800  1
  O  O66  1  0.70497900  0.25323200  0.73882200  1
  O  O67  1  0.02323200  0.40880700  0.10239000  1
  O  O68  1  0.33301900  0.73845100  0.60020300  1
  O  O69  1  0.32430700  0.01290000  0.29833100  1
  O  O70  1  0.24223400  0.40264400  0.68645200  1
  O  O71  1  0.98749100  0.27994700  0.34530400  1
  O  O72  1  0.01250900  0.72005300  0.34530400  1
  O  O73  1  0.25776600  0.90264400  0.18645200  1
  O  O74  1  0.82061900  0.26087200  0.12811800  1
  O  O75  1  0.67938100  0.76087200  0.62811800  1
  O  O76  1  0.50000000  0.50000000  0.75004400  1
  O  O77  1  0.94291700  0.28967000  0.00000000  1
  O  O78  1  0.16698100  0.23845100  0.10020300  1
  O  O79  1  0.05708300  0.71033000  0.00000000  1
  O  O80  1  0.67569300  0.98710000  0.70166900  1
  O  O81  1  0.32061900  0.23912800  0.62811800  1
  O  O82  1  0.01250900  0.72005300  0.65469600  1
  O  O83  1  0.51250900  0.77994700  0.15469600  1
  O  O84  1  0.75153400  0.91542900  0.82824000  1
  O  O85  1  0.33301900  0.73845100  0.39979700  1
  O  O86  1  0.82430700  0.48710000  0.20166900  1
  O  O87  1  0.25776600  0.90264400  0.81354800  1
  O  O88  1  0.47676800  0.90880700  0.60239000  1
  O  O89  1  0.67569300  0.98710000  0.29833100  1
  O  O90  1  0.32061900  0.23912800  0.37188200  1
  O  O91  1  0.75776600  0.59735600  0.31354800  1
  O  O92  1  0.55708300  0.78967000  0.50000000  1
  O  O93  1  0.25153400  0.58457100  0.32824000  1
  O  O94  1  0.97676800  0.59119300  0.10239000  1
  O  O95  1  0.32430700  0.01290000  0.70166900  1
  O  O96  1  0.24846600  0.08457100  0.17176000  1
  O  O97  1  0.52323200  0.09119300  0.39761000  1
  O  O98  1  0.16698100  0.23845100  0.89979700  1
  O  O99  1  0.48749100  0.22005300  0.15469600  1
  O  O100  1  0.74223400  0.09735600  0.18645200  1
  O  O101  1  0.74223400  0.09735600  0.81354800  1
  O  O102  1  0.00000000  0.00000000  0.74995600  1
  O  O103  1  0.52323200  0.09119300  0.60239000  1
  O  O104  1  0.82430700  0.48710000  0.79833100  1
  O  O105  1  0.02323200  0.40880700  0.89761000  1
  O  O106  1  0.66698100  0.26154900  0.60020300  1
  O  O107  1  0.17569300  0.51290000  0.79833100  1
