# generated using pymatgen
data_In4(P2O7)3
_symmetry_space_group_name_H-M   'P 1'
_cell_length_a   9.90623200
_cell_length_b   13.46972300
_cell_length_c   13.65702891
_cell_angle_alpha   71.19240783
_cell_angle_beta   90.00000000
_cell_angle_gamma   90.00000000
_symmetry_Int_Tables_number   1
_chemical_formula_structural   In4(P2O7)3
_chemical_formula_sum   'In16 P24 O84'
_cell_volume   1725.01506719
_cell_formula_units_Z   4
loop_
 _symmetry_equiv_pos_site_id
 _symmetry_equiv_pos_as_xyz
  1  'x, y, z'
loop_
 _atom_site_type_symbol
 _atom_site_label
 _atom_site_symmetry_multiplicity
 _atom_site_fract_x
 _atom_site_fract_y
 _atom_site_fract_z
 _atom_site_occupancy
  In  In0  1  0.22731900  0.78001300  0.73236600  1
  In  In1  1  0.75659200  0.22184000  0.76623900  1
  In  In2  1  0.22062500  0.48177200  0.52001400  1
  In  In3  1  0.25952600  0.98033400  0.02271400  1
  In  In4  1  0.27268100  0.28001300  0.73236600  1
  In  In5  1  0.74047400  0.01966600  0.97728600  1
  In  In6  1  0.27937500  0.98177200  0.52001400  1
  In  In7  1  0.72731800  0.71998700  0.26763400  1
  In  In8  1  0.25659200  0.27816000  0.23376100  1
  In  In9  1  0.24340800  0.77816000  0.23376100  1
  In  In10  1  0.24047400  0.48033400  0.02271400  1
  In  In11  1  0.77937500  0.51822800  0.47998600  1
  In  In12  1  0.74340800  0.72184000  0.76623900  1
  In  In13  1  0.75952600  0.51966600  0.97728600  1
  In  In14  1  0.77268100  0.21998700  0.26763400  1
  In  In15  1  0.72062500  0.01822800  0.47998600  1
  P  P16  1  0.17392800  0.51097100  0.76561900  1
  P  P17  1  0.32607200  0.01097100  0.76561900  1
  P  P18  1  0.03009500  0.17447700  0.92456500  1
  P  P19  1  0.02008200  0.70218000  0.43394000  1
  P  P20  1  0.96898500  0.82952800  0.57746800  1
  P  P21  1  0.53009500  0.32552300  0.07543500  1
  P  P22  1  0.53101500  0.32952800  0.57746800  1
  P  P23  1  0.03101500  0.17047200  0.42253200  1
  P  P24  1  0.64183800  0.98331800  0.73895000  1
  P  P25  1  0.47991800  0.20218000  0.43394000  1
  P  P26  1  0.35816200  0.01668200  0.26105000  1
  P  P27  1  0.46898500  0.67047200  0.42253200  1
  P  P28  1  0.52008200  0.79782000  0.56606000  1
  P  P29  1  0.48301400  0.19513700  0.93424400  1
  P  P30  1  0.46990500  0.67447700  0.92456500  1
  P  P31  1  0.97991800  0.29782000  0.56606000  1
  P  P32  1  0.85816200  0.48331800  0.73895000  1
  P  P33  1  0.67392800  0.98902900  0.23438100  1
  P  P34  1  0.14183800  0.51668200  0.26105000  1
  P  P35  1  0.98301400  0.30486300  0.06575600  1
  P  P36  1  0.96990500  0.82552300  0.07543500  1
  P  P37  1  0.01698600  0.69513700  0.93424400  1
  P  P38  1  0.82607200  0.48902900  0.23438100  1
  P  P39  1  0.51698600  0.80486300  0.06575600  1
  O  O40  1  0.66111600  0.03914200  0.62335700  1
  O  O41  1  0.07705500  0.24751300  0.31999500  1
  O  O42  1  0.20969600  0.45355800  0.19645100  1
  O  O43  1  0.87636000  0.15143900  0.41557100  1
  O  O44  1  0.41540300  0.28069800  0.84731000  1
  O  O45  1  0.44798900  0.72512700  0.50901400  1
  O  O46  1  0.10650400  0.22508300  0.82580500  1
  O  O47  1  0.10412000  0.34312500  0.60715700  1
  O  O48  1  0.89349600  0.77491700  0.17419500  1
  O  O49  1  0.12364000  0.84856100  0.58442900  1
  O  O50  1  0.60650400  0.27491700  0.17419500  1
  O  O51  1  0.37636000  0.34856100  0.58442900  1
  O  O52  1  0.62364000  0.65143900  0.41557100  1
  O  O53  1  0.31112800  0.12881100  0.72107600  1
  O  O54  1  0.60327800  0.72248600  0.65111900  1
  O  O55  1  0.86738100  0.67623000  0.90956900  1
  O  O56  1  0.18887200  0.62881100  0.72107600  1
  O  O57  1  0.10327800  0.77751400  0.34888100  1
  O  O58  1  0.18954100  0.62982000  0.22289600  1
  O  O59  1  0.10891700  0.06909300  0.45745900  1
  O  O60  1  0.48351400  0.98033400  0.76700500  1
  O  O61  1  0.98351400  0.51966600  0.23299500  1
  O  O62  1  0.05201100  0.22512700  0.50901400  1
  O  O63  1  0.29030400  0.95355800  0.19645100  1
  O  O64  1  0.13261900  0.32377000  0.09043100  1
  O  O65  1  0.60789900  0.63558400  0.89589700  1
  O  O66  1  0.58459700  0.71930200  0.15269000  1
  O  O67  1  0.40140400  0.11418900  0.51083400  1
  O  O68  1  0.27248500  0.95900800  0.87485800  1
  O  O69  1  0.70969600  0.04644200  0.80354900  1
  O  O70  1  0.81112800  0.37118900  0.27892400  1
  O  O71  1  0.01107500  0.73234900  0.03342500  1
  O  O72  1  0.77248500  0.54099200  0.12514200  1
  O  O73  1  0.89108300  0.93090700  0.54254100  1
  O  O74  1  0.60198500  0.40959400  0.99034400  1
  O  O75  1  0.16111600  0.46085800  0.37664300  1
  O  O76  1  0.41191600  0.09069100  0.97176400  1
  O  O77  1  0.39349600  0.72508300  0.82580500  1
  O  O78  1  0.83888400  0.53914200  0.62335700  1
  O  O79  1  0.08459700  0.78069800  0.84731000  1
  O  O80  1  0.10789900  0.86441600  0.10410300  1
  O  O81  1  0.08808400  0.59069100  0.97176400  1
  O  O82  1  0.51107500  0.76765100  0.96657500  1
  O  O83  1  0.39588000  0.84312500  0.60715700  1
  O  O84  1  0.39210100  0.36441600  0.10410300  1
  O  O85  1  0.81045900  0.37018000  0.77710400  1
  O  O86  1  0.68954100  0.87018000  0.77710400  1
  O  O87  1  0.89801500  0.90959400  0.99034400  1
  O  O88  1  0.89588000  0.65687500  0.39284300  1
  O  O89  1  0.39801500  0.59040600  0.00965600  1
  O  O90  1  0.57705500  0.25248700  0.68000500  1
  O  O91  1  0.91540300  0.21930200  0.15269000  1
  O  O92  1  0.63261900  0.17623000  0.90956900  1
  O  O93  1  0.58808400  0.90930900  0.02823600  1
  O  O94  1  0.22751500  0.45900800  0.87485800  1
  O  O95  1  0.55201100  0.27487300  0.49098600  1
  O  O96  1  0.59859600  0.88581100  0.48916600  1
  O  O97  1  0.98892500  0.26765100  0.96657500  1
  O  O98  1  0.89210100  0.13558400  0.89589700  1
  O  O99  1  0.60412000  0.15687500  0.39284300  1
  O  O100  1  0.68887200  0.87118900  0.27892400  1
  O  O101  1  0.09859600  0.61418900  0.51083400  1
  O  O102  1  0.89672200  0.22248600  0.65111900  1
  O  O103  1  0.42294500  0.74751300  0.31999500  1
  O  O104  1  0.74395300  0.04353900  0.30661200  1
  O  O105  1  0.39672200  0.27751400  0.34888100  1
  O  O106  1  0.51648600  0.01966600  0.23299500  1
  O  O107  1  0.01648600  0.48033400  0.76700500  1
  O  O108  1  0.60891700  0.43090700  0.54254100  1
  O  O109  1  0.72751500  0.04099200  0.12514200  1
  O  O110  1  0.91191600  0.40930900  0.02823600  1
  O  O111  1  0.25604700  0.95646100  0.69338800  1
  O  O112  1  0.94798900  0.77487300  0.49098600  1
  O  O113  1  0.48892500  0.23234900  0.03342500  1
  O  O114  1  0.75604700  0.54353900  0.30661200  1
  O  O115  1  0.10198500  0.09040600  0.00965600  1
  O  O116  1  0.39108300  0.56909300  0.45745900  1
  O  O117  1  0.92294500  0.75248700  0.68000500  1
  O  O118  1  0.36738100  0.82377000  0.09043100  1
  O  O119  1  0.24395300  0.45646100  0.69338800  1
  O  O120  1  0.33888400  0.96085800  0.37664300  1
  O  O121  1  0.79030400  0.54644200  0.80354900  1
  O  O122  1  0.31045900  0.12982000  0.22289600  1
  O  O123  1  0.90140400  0.38581100  0.48916600  1
