# generated using pymatgen
data_SnH58C16S4(N11O9)2
_symmetry_space_group_name_H-M   'P 1'
_cell_length_a   7.45973900
_cell_length_b   10.77129187
_cell_length_c   16.27149807
_cell_angle_alpha   104.81355599
_cell_angle_beta   91.76679942
_cell_angle_gamma   104.79810289
_symmetry_Int_Tables_number   1
_chemical_formula_structural   SnH58C16S4(N11O9)2
_chemical_formula_sum   'Sn1 H58 C16 S4 N22 O18'
_cell_volume   1215.57180249
_cell_formula_units_Z   1
loop_
 _symmetry_equiv_pos_site_id
 _symmetry_equiv_pos_as_xyz
  1  'x, y, z'
loop_
 _atom_site_type_symbol
 _atom_site_label
 _atom_site_symmetry_multiplicity
 _atom_site_fract_x
 _atom_site_fract_y
 _atom_site_fract_z
 _atom_site_occupancy
  Sn  Sn0  1  0.00000000  0.50000000  0.00000000  1
  H  H1  1  0.29263600  0.27616600  0.48320200  1
  H  H2  1  0.20058500  0.75470100  0.02657600  1
  H  H3  1  0.00773100  0.25235800  0.33762500  1
  H  H4  1  0.70736400  0.72383400  0.51679800  1
  H  H5  1  0.15493100  0.89677100  0.53138700  1
  H  H6  1  0.67577600  0.48811100  0.74896600  1
  H  H7  1  0.38425100  0.95584300  0.83174800  1
  H  H8  1  0.13645700  0.39204500  0.71455000  1
  H  H9  1  0.40349200  0.74313500  0.50972000  1
  H  H10  1  0.88786500  0.94646500  0.41738400  1
  H  H11  1  0.22466100  0.38911400  0.56648000  1
  H  H12  1  0.64588400  0.41002500  0.33096400  1
  H  H13  1  0.35411600  0.58997500  0.66903600  1
  H  H14  1  0.86354300  0.60795500  0.28545000  1
  H  H15  1  0.51934700  0.99145100  0.92836800  1
  H  H16  1  0.81074200  0.59990000  0.64205500  1
  H  H17  1  0.25939400  0.84571700  0.22780400  1
  H  H18  1  0.59650800  0.25686500  0.49028000  1
  H  H19  1  0.96373300  0.97517200  0.92232300  1
  H  H20  1  0.79941500  0.24529900  0.97342400  1
  H  H21  1  0.69031600  0.69003400  0.27536500  1
  H  H22  1  0.39227700  0.30814300  0.19454800  1
  H  H23  1  0.18925800  0.40010000  0.35794500  1
  H  H24  1  0.67873900  0.78049700  0.91107000  1
  H  H25  1  0.74060600  0.15428300  0.77219600  1
  H  H26  1  0.25173000  0.30539300  0.93806300  1
  H  H27  1  0.48065300  0.00854900  0.07163200  1
  H  H28  1  0.32422400  0.51188900  0.25103400  1
  H  H29  1  0.32126100  0.21950300  0.08893000  1
  H  H30  1  0.37207900  0.25802900  0.84883100  1
  H  H31  1  0.30381400  0.64851300  0.95028500  1
  H  H32  1  0.29660000  0.74268700  0.69155700  1
  H  H33  1  0.31301600  0.05015900  0.52332700  1
  H  H34  1  0.68698400  0.94984100  0.47667300  1
  H  H35  1  0.70340000  0.25731300  0.30844300  1
  H  H36  1  0.60772300  0.69185700  0.80545200  1
  H  H37  1  0.99226900  0.74764200  0.66237500  1
  H  H38  1  0.11213500  0.05353500  0.58261600  1
  H  H39  1  0.03626700  0.02482800  0.07767700  1
  H  H40  1  0.84506900  0.10322900  0.46861300  1
  H  H41  1  0.69618600  0.35148700  0.04971500  1
  H  H42  1  0.83334500  0.44419900  0.81192600  1
  H  H43  1  0.61574900  0.04415700  0.16825200  1
  H  H44  1  0.65859200  0.33853700  0.93794500  1
  H  H45  1  0.77533900  0.61088600  0.43352000  1
  H  H46  1  0.14874600  0.84647900  0.32425900  1
  H  H47  1  0.16665500  0.55580100  0.18807400  1
  H  H48  1  0.85125400  0.15352100  0.67574100  1
  H  H49  1  0.94516900  0.09415900  0.75710600  1
  H  H50  1  0.76585700  0.36908600  0.57245700  1
  H  H51  1  0.07418400  0.94403900  0.82751600  1
  H  H52  1  0.30968400  0.30996600  0.72463500  1
  H  H53  1  0.34140800  0.66146300  0.06205500  1
  H  H54  1  0.92581600  0.05596100  0.17248400  1
  H  H55  1  0.23414300  0.63091400  0.42754300  1
  H  H56  1  0.05483100  0.90584100  0.24289400  1
  H  H57  1  0.74827000  0.69460700  0.06193700  1
  H  H58  1  0.62792100  0.74197100  0.15116900  1
  C  C59  1  0.82101800  0.64276600  0.16811700  1
  C  C60  1  0.75229700  0.99937600  0.06100800  1
  C  C61  1  0.50240500  0.39488000  0.57913300  1
  C  C62  1  0.24229500  0.66166000  0.01112300  1
  C  C63  1  0.92663900  0.42535600  0.34764800  1
  C  C64  1  0.78029100  0.99771300  0.43635000  1
  C  C65  1  0.81817800  0.10224300  0.72570900  1
  C  C66  1  0.49759500  0.60512000  0.42086700  1
  C  C67  1  0.75770500  0.33834000  0.98887700  1
  C  C68  1  0.74547300  0.60275300  0.87430100  1
  C  C69  1  0.21970900  0.00228700  0.56365000  1
  C  C70  1  0.17898200  0.35723400  0.83188300  1
  C  C71  1  0.24770300  0.00062400  0.93899200  1
  C  C72  1  0.25452700  0.39724700  0.12569900  1
  C  C73  1  0.18182200  0.89775700  0.27429100  1
  C  C74  1  0.07336100  0.57464400  0.65235200  1
  S  S75  1  0.64863200  0.98759600  0.34105700  1
  S  S76  1  0.67810600  0.93645700  0.67799200  1
  S  S77  1  0.35136800  0.01240400  0.65894300  1
  S  S78  1  0.32189400  0.06354300  0.32200800  1
  N  N79  1  0.26191900  0.50372800  0.19185000  1
  N  N80  1  0.91721100  0.02458400  0.10781900  1
  N  N81  1  0.34739900  0.30874800  0.13511500  1
  N  N82  1  0.25470500  0.64142200  0.67662600  1
  N  N83  1  0.36896600  0.66576100  0.45569700  1
  N  N84  1  0.50859800  0.94525600  0.61843100  1
  N  N85  1  0.71636300  0.69117700  0.12200000  1
  N  N86  1  0.08278900  0.97541600  0.89218100  1
  N  N87  1  0.95026300  0.64655400  0.64918700  1
  N  N88  1  0.04973700  0.35344600  0.35081300  1
  N  N89  1  0.65260100  0.69125200  0.86488500  1
  N  N90  1  0.32635600  0.34862700  0.54000600  1
  N  N91  1  0.74529500  0.35857800  0.32337400  1
  N  N92  1  0.67364400  0.65137300  0.45999400  1
  N  N93  1  0.28363700  0.30882300  0.87800000  1
  N  N94  1  0.39955300  0.99331900  0.89635500  1
  N  N95  1  0.78692200  0.64487000  0.24850800  1
  N  N96  1  0.63103400  0.33423900  0.54430300  1
  N  N97  1  0.73808100  0.49627200  0.80815000  1
  N  N98  1  0.60044700  0.00668100  0.10364500  1
  N  N99  1  0.21307800  0.35513000  0.75149200  1
  N  N100  1  0.49140200  0.05474400  0.38156900  1
  O  O101  1  0.73947900  0.96624300  0.97954300  1
  O  O102  1  0.02029200  0.44713200  0.63324900  1
  O  O103  1  0.95330100  0.59539800  0.13585600  1
  O  O104  1  0.22934600  0.93223100  0.70714800  1
  O  O105  1  0.16608600  0.37937600  0.05241600  1
  O  O106  1  0.04669900  0.40460200  0.86414400  1
  O  O107  1  0.38263300  0.12217900  0.25246700  1
  O  O108  1  0.42542100  0.15346800  0.70637200  1
  O  O109  1  0.20961600  0.13035900  0.38066800  1
  O  O110  1  0.83391400  0.62062400  0.94758400  1
  O  O111  1  0.77065400  0.06776900  0.29285200  1
  O  O112  1  0.57457900  0.84653200  0.29362800  1
  O  O113  1  0.54597600  0.49184100  0.64699500  1
  O  O114  1  0.97970800  0.55286800  0.36675100  1
  O  O115  1  0.79038400  0.86964100  0.61933200  1
  O  O116  1  0.45402400  0.50815900  0.35300500  1
  O  O117  1  0.26052100  0.03375700  0.02045700  1
  O  O118  1  0.61736700  0.87782100  0.74753300  1
