# generated using pymatgen
data_NaCaAlF6
_symmetry_space_group_name_H-M   'P 1'
_cell_length_a   5.26066900
_cell_length_b   8.86052600
_cell_length_c   20.59777257
_cell_angle_alpha   88.30886774
_cell_angle_beta   90.00000000
_cell_angle_gamma   90.00000000
_symmetry_Int_Tables_number   1
_chemical_formula_structural   NaCaAlF6
_chemical_formula_sum   'Na8 Ca8 Al8 F48'
_cell_volume   959.69125462
_cell_formula_units_Z   8
loop_
 _symmetry_equiv_pos_site_id
 _symmetry_equiv_pos_as_xyz
  1  'x, y, z'
loop_
 _atom_site_type_symbol
 _atom_site_label
 _atom_site_symmetry_multiplicity
 _atom_site_fract_x
 _atom_site_fract_y
 _atom_site_fract_z
 _atom_site_occupancy
  Na  Na0  1  0.75816600  0.97632800  0.31779100  1
  Na  Na1  1  0.25816600  0.02367200  0.18220900  1
  Na  Na2  1  0.24183400  0.02367200  0.68220900  1
  Na  Na3  1  0.20817400  0.04162700  0.93750200  1
  Na  Na4  1  0.29182600  0.04162700  0.43750200  1
  Na  Na5  1  0.74183400  0.97632800  0.81779100  1
  Na  Na6  1  0.70817400  0.95837300  0.56249800  1
  Na  Na7  1  0.79182600  0.95837300  0.06249800  1
  Ca  Ca8  1  0.76010200  0.63781000  0.68859400  1
  Ca  Ca9  1  0.81207600  0.63390000  0.93575800  1
  Ca  Ca10  1  0.18792400  0.36610000  0.06424200  1
  Ca  Ca11  1  0.23989800  0.36219000  0.31140600  1
  Ca  Ca12  1  0.73989800  0.63781000  0.18859400  1
  Ca  Ca13  1  0.31207600  0.36610000  0.56424200  1
  Ca  Ca14  1  0.26010200  0.36219000  0.81140600  1
  Ca  Ca15  1  0.68792400  0.63390000  0.43575800  1
  Al  Al16  1  0.75213500  0.25637100  0.18047000  1
  Al  Al17  1  0.25213500  0.74362900  0.31953000  1
  Al  Al18  1  0.19093800  0.74472000  0.57198100  1
  Al  Al19  1  0.69093800  0.25528000  0.92801900  1
  Al  Al20  1  0.80906200  0.25528000  0.42801900  1
  Al  Al21  1  0.74786500  0.25637100  0.68047000  1
  Al  Al22  1  0.30906200  0.74472000  0.07198100  1
  Al  Al23  1  0.24786500  0.74362900  0.81953000  1
  F  F24  1  0.52125000  0.75639700  0.87286400  1
  F  F25  1  0.46100500  0.25496400  0.73031900  1
  F  F26  1  0.90979300  0.39296600  0.73404400  1
  F  F27  1  0.59012800  0.73453800  0.01885000  1
  F  F28  1  0.71671200  0.08040000  0.46676200  1
  F  F29  1  0.86335700  0.09505300  0.72517500  1
  F  F30  1  0.12649600  0.62587800  0.01722700  1
  F  F31  1  0.13664300  0.90494700  0.27482500  1
  F  F32  1  0.50891600  0.84013800  0.13155600  1
  F  F33  1  0.05600800  0.84641900  0.88027200  1
  F  F34  1  0.09012800  0.26546200  0.48115000  1
  F  F35  1  0.97875000  0.75639700  0.37286400  1
  F  F36  1  0.90987200  0.73453800  0.51885000  1
  F  F37  1  0.03899500  0.25496400  0.23031900  1
  F  F38  1  0.63664300  0.09505300  0.22517500  1
  F  F39  1  0.09824700  0.56721000  0.61382300  1
  F  F40  1  0.53523700  0.23410600  0.37298100  1
  F  F41  1  0.46476300  0.76589400  0.62701900  1
  F  F42  1  0.02125000  0.24360300  0.62713600  1
  F  F43  1  0.62649600  0.37412200  0.48277300  1
  F  F44  1  0.99108400  0.84013800  0.63155600  1
  F  F45  1  0.40987200  0.26546200  0.98115000  1
  F  F46  1  0.87730400  0.42870800  0.13677700  1
  F  F47  1  0.37350400  0.62587800  0.51722700  1
  F  F48  1  0.87350400  0.37412200  0.98277300  1
  F  F49  1  0.55600800  0.15358100  0.61972800  1
  F  F50  1  0.47875000  0.24360300  0.12713600  1
  F  F51  1  0.03523700  0.76589400  0.12701900  1
  F  F52  1  0.62269600  0.42870800  0.63677700  1
  F  F53  1  0.90175300  0.43279000  0.38617700  1
  F  F54  1  0.12269600  0.57129200  0.86322300  1
  F  F55  1  0.59824700  0.43279000  0.88617700  1
  F  F56  1  0.40979300  0.60703400  0.76595600  1
  F  F57  1  0.21671200  0.91960000  0.03323800  1
  F  F58  1  0.96100500  0.74503600  0.76968100  1
  F  F59  1  0.53899500  0.74503600  0.26968100  1
  F  F60  1  0.37730400  0.57129200  0.36322300  1
  F  F61  1  0.94399200  0.15358100  0.11972800  1
  F  F62  1  0.36335700  0.90494700  0.77482500  1
  F  F63  1  0.28328800  0.91960000  0.53323800  1
  F  F64  1  0.40175300  0.56721000  0.11382300  1
  F  F65  1  0.59020700  0.39296600  0.23404400  1
  F  F66  1  0.96476300  0.23410600  0.87298100  1
  F  F67  1  0.78328800  0.08040000  0.96676200  1
  F  F68  1  0.49108400  0.15986200  0.86844400  1
  F  F69  1  0.09020700  0.60703400  0.26595600  1
  F  F70  1  0.44399200  0.84641900  0.38027200  1
  F  F71  1  0.00891600  0.15986200  0.36844400  1
