# generated using pymatgen
data_H2O
_symmetry_space_group_name_H-M   'P 1'
_cell_length_a   3.96751200
_cell_length_b   8.12138700
_cell_length_c   8.32015900
_cell_angle_alpha   90.00000000
_cell_angle_beta   90.00000000
_cell_angle_gamma   90.00000000
_symmetry_Int_Tables_number   1
_chemical_formula_structural   H2O
_chemical_formula_sum   'H24 O12'
_cell_volume   268.08967040
_cell_formula_units_Z   12
loop_
 _symmetry_equiv_pos_site_id
 _symmetry_equiv_pos_as_xyz
  1  'x, y, z'
loop_
 _atom_site_type_symbol
 _atom_site_label
 _atom_site_symmetry_multiplicity
 _atom_site_fract_x
 _atom_site_fract_y
 _atom_site_fract_z
 _atom_site_occupancy
  H  H0  1  0.14828600  0.07613400  0.59687000  1
  H  H1  1  0.51387900  0.54729400  0.15640500  1
  H  H2  1  0.38588000  0.66079900  0.66308700  1
  H  H3  1  0.06601300  0.21951400  0.47764000  1
  H  H4  1  0.33760900  0.22416700  0.96573900  1
  H  H5  1  0.77242400  0.08836800  0.21614400  1
  H  H6  1  0.66239100  0.72416700  0.53426100  1
  H  H7  1  0.98612100  0.45270600  0.65640500  1
  H  H8  1  0.22757600  0.58836800  0.28385600  1
  H  H9  1  0.61412000  0.16079900  0.83691300  1
  H  H10  1  0.88588000  0.83920100  0.33691300  1
  H  H11  1  0.48612100  0.04729400  0.34359500  1
  H  H12  1  0.93398700  0.71951400  0.02236000  1
  H  H13  1  0.64828600  0.42386600  0.40313000  1
  H  H14  1  0.27242400  0.41163200  0.78385600  1
  H  H15  1  0.43398700  0.78048600  0.97764000  1
  H  H16  1  0.11412000  0.33920100  0.16308700  1
  H  H17  1  0.72757600  0.91163200  0.71614400  1
  H  H18  1  0.35171400  0.92386600  0.09687000  1
  H  H19  1  0.56601300  0.28048600  0.52236000  1
  H  H20  1  0.83760900  0.27583300  0.03426100  1
  H  H21  1  0.01387900  0.95270600  0.84359500  1
  H  H22  1  0.16239100  0.77583300  0.46573900  1
  H  H23  1  0.85171400  0.57613400  0.90313000  1
  O  O24  1  0.62601900  0.99791200  0.25709900  1
  O  O25  1  0.12601900  0.50208800  0.74290100  1
  O  O26  1  0.87398100  0.00208800  0.75709900  1
  O  O27  1  0.75519500  0.63811300  0.99529700  1
  O  O28  1  0.01823100  0.23934400  0.11073000  1
  O  O29  1  0.74480500  0.36188700  0.49529700  1
  O  O30  1  0.51823100  0.26065600  0.88927000  1
  O  O31  1  0.37398100  0.49791200  0.24290100  1
  O  O32  1  0.98176900  0.73934400  0.38927000  1
  O  O33  1  0.24480500  0.13811300  0.50470300  1
  O  O34  1  0.48176900  0.76065600  0.61073000  1
  O  O35  1  0.25519500  0.86188700  0.00470300  1
