# generated using pymatgen
data_Ca3Mg(SiO4)2
_symmetry_space_group_name_H-M   'P 1'
_cell_length_a   5.35133500
_cell_length_b   9.46807500
_cell_length_c   13.39481237
_cell_angle_alpha   87.64310057
_cell_angle_beta   90.00000000
_cell_angle_gamma   90.00000000
_symmetry_Int_Tables_number   1
_chemical_formula_structural   Ca3Mg(SiO4)2
_chemical_formula_sum   'Ca12 Mg4 Si8 O32'
_cell_volume   678.09870560
_cell_formula_units_Z   4
loop_
 _symmetry_equiv_pos_site_id
 _symmetry_equiv_pos_as_xyz
  1  'x, y, z'
loop_
 _atom_site_type_symbol
 _atom_site_label
 _atom_site_symmetry_multiplicity
 _atom_site_fract_x
 _atom_site_fract_y
 _atom_site_fract_z
 _atom_site_occupancy
  Ca  Ca0  1  0.25907600  0.42313100  0.90230300  1
  Ca  Ca1  1  0.67658300  0.22295400  0.24353800  1
  Ca  Ca2  1  0.82341700  0.22295400  0.74353800  1
  Ca  Ca3  1  0.32341700  0.77704600  0.75646200  1
  Ca  Ca4  1  0.76834300  0.92427500  0.91934600  1
  Ca  Ca5  1  0.24092400  0.42313100  0.40230300  1
  Ca  Ca6  1  0.17658300  0.77704600  0.25646200  1
  Ca  Ca7  1  0.73165700  0.92427500  0.41934600  1
  Ca  Ca8  1  0.23165700  0.07572500  0.08065400  1
  Ca  Ca9  1  0.75907600  0.57686900  0.59769700  1
  Ca  Ca10  1  0.74092400  0.57686900  0.09769700  1
  Ca  Ca11  1  0.26834300  0.07572500  0.58065400  1
  Mg  Mg12  1  0.74256600  0.25356800  0.99566000  1
  Mg  Mg13  1  0.75743400  0.25356800  0.49566000  1
  Mg  Mg14  1  0.24256600  0.74643200  0.50434000  1
  Mg  Mg15  1  0.25743400  0.74643200  0.00434000  1
  Si  Si16  1  0.77303400  0.90599900  0.64142100  1
  Si  Si17  1  0.77180100  0.60195500  0.86756000  1
  Si  Si18  1  0.22696600  0.09400100  0.35857900  1
  Si  Si19  1  0.72696600  0.90599900  0.14142100  1
  Si  Si20  1  0.27180100  0.39804500  0.63244000  1
  Si  Si21  1  0.72819900  0.60195500  0.36756000  1
  Si  Si22  1  0.27303400  0.09400100  0.85857900  1
  Si  Si23  1  0.22819900  0.39804500  0.13244000  1
  O  O24  1  0.02943400  0.81415600  0.62780700  1
  O  O25  1  0.58456500  0.69633600  0.93750300  1
  O  O26  1  0.08456500  0.30366400  0.56249700  1
  O  O27  1  0.18577500  0.06969000  0.74468400  1
  O  O28  1  0.52943400  0.18584400  0.87219300  1
  O  O29  1  0.31422500  0.06969000  0.24468400  1
  O  O30  1  0.04359800  0.17596000  0.91701800  1
  O  O31  1  0.86147900  0.59707200  0.25864100  1
  O  O32  1  0.91543500  0.69633600  0.43750300  1
  O  O33  1  0.29707300  0.94150600  0.92348300  1
  O  O34  1  0.97056600  0.18584400  0.37219300  1
  O  O35  1  0.45640200  0.17596000  0.41701800  1
  O  O36  1  0.79707300  0.05849400  0.57651700  1
  O  O37  1  0.94900700  0.32320700  0.12580500  1
  O  O38  1  0.68577500  0.93031000  0.75531600  1
  O  O39  1  0.13852100  0.40292800  0.74135900  1
  O  O40  1  0.21065300  0.55342500  0.07306500  1
  O  O41  1  0.20292700  0.94150600  0.42348300  1
  O  O42  1  0.78934700  0.44657500  0.92693500  1
  O  O43  1  0.41543500  0.30366400  0.06249700  1
  O  O44  1  0.05099300  0.67679300  0.87419500  1
  O  O45  1  0.36147900  0.40292800  0.24135900  1
  O  O46  1  0.54359800  0.82404000  0.58298200  1
  O  O47  1  0.71065300  0.44657500  0.42693500  1
  O  O48  1  0.81422500  0.93031000  0.25531600  1
  O  O49  1  0.55099300  0.32320700  0.62580500  1
  O  O50  1  0.44900700  0.67679300  0.37419500  1
  O  O51  1  0.47056600  0.81415600  0.12780700  1
  O  O52  1  0.95640200  0.82404000  0.08298200  1
  O  O53  1  0.63852100  0.59707200  0.75864100  1
  O  O54  1  0.70292700  0.05849400  0.07651700  1
  O  O55  1  0.28934700  0.55342500  0.57306500  1
