# generated using pymatgen
data_Tl2Te3O7
_symmetry_space_group_name_H-M   'P 1'
_cell_length_a   6.96750400
_cell_length_b   7.62993062
_cell_length_c   10.35329940
_cell_angle_alpha   93.00024075
_cell_angle_beta   109.14378359
_cell_angle_gamma   111.92835477
_symmetry_Int_Tables_number   1
_chemical_formula_structural   Tl2Te3O7
_chemical_formula_sum   'Tl4 Te6 O14'
_cell_volume   472.64815943
_cell_formula_units_Z   2
loop_
 _symmetry_equiv_pos_site_id
 _symmetry_equiv_pos_as_xyz
  1  'x, y, z'
loop_
 _atom_site_type_symbol
 _atom_site_label
 _atom_site_symmetry_multiplicity
 _atom_site_fract_x
 _atom_site_fract_y
 _atom_site_fract_z
 _atom_site_occupancy
  Tl  Tl0  1  0.88683600  0.14563900  0.83028200  1
  Tl  Tl1  1  0.29553400  0.04050800  0.56595600  1
  Tl  Tl2  1  0.11316400  0.85436100  0.16971800  1
  Tl  Tl3  1  0.70446600  0.95949200  0.43404400  1
  Te  Te4  1  0.48771800  0.20914700  0.98961700  1
  Te  Te5  1  0.13535100  0.35218200  0.23772100  1
  Te  Te6  1  0.25958900  0.50620500  0.66465300  1
  Te  Te7  1  0.86464900  0.64781800  0.76227900  1
  Te  Te8  1  0.51228200  0.79085300  0.01038300  1
  Te  Te9  1  0.74041100  0.49379500  0.33534700  1
  O  O10  1  0.05689500  0.46986000  0.37092200  1
  O  O11  1  0.55723000  0.46019900  0.69165200  1
  O  O12  1  0.16835900  0.15057500  0.32442300  1
  O  O13  1  0.35009500  0.90476100  0.87713400  1
  O  O14  1  0.83164100  0.84942500  0.67557700  1
  O  O15  1  0.32221600  0.53453300  0.86545100  1
  O  O16  1  0.67778400  0.46546700  0.13454900  1
  O  O17  1  0.64990500  0.09523900  0.12286600  1
  O  O18  1  0.89085400  0.76098700  0.36653800  1
  O  O19  1  0.44277000  0.53980100  0.30834800  1
  O  O20  1  0.94310500  0.53014000  0.62907800  1
  O  O21  1  0.76450300  0.84365900  0.96499300  1
  O  O22  1  0.10914600  0.23901300  0.63346200  1
  O  O23  1  0.23549700  0.15634100  0.03500700  1
