# generated using pymatgen
data_Nd3U(ClO2)3
_symmetry_space_group_name_H-M   'P 1'
_cell_length_a   9.46061035
_cell_length_b   9.46061035
_cell_length_c   5.58107000
_cell_angle_alpha   90.00000000
_cell_angle_beta   90.00000000
_cell_angle_gamma   120.00000245
_symmetry_Int_Tables_number   1
_chemical_formula_structural   Nd3U(ClO2)3
_chemical_formula_sum   'Nd6 U2 Cl6 O12'
_cell_volume   432.59988751
_cell_formula_units_Z   2
loop_
 _symmetry_equiv_pos_site_id
 _symmetry_equiv_pos_as_xyz
  1  'x, y, z'
loop_
 _atom_site_type_symbol
 _atom_site_label
 _atom_site_symmetry_multiplicity
 _atom_site_fract_x
 _atom_site_fract_y
 _atom_site_fract_z
 _atom_site_occupancy
  Nd  Nd0  1  0.59482100  0.90965100  0.75000000  1
  Nd  Nd1  1  0.40517900  0.09034900  0.25000000  1
  Nd  Nd2  1  0.09034900  0.68517000  0.75000000  1
  Nd  Nd3  1  0.31483000  0.40517900  0.75000000  1
  Nd  Nd4  1  0.68517000  0.59482100  0.25000000  1
  Nd  Nd5  1  0.90965100  0.31483000  0.25000000  1
  U  U6  1  0.66666700  0.33333300  0.75000000  1
  U  U7  1  0.33333300  0.66666700  0.25000000  1
  Cl  Cl8  1  0.18841800  0.24766800  0.25000000  1
  Cl  Cl9  1  0.94075000  0.18841800  0.75000000  1
  Cl  Cl10  1  0.24766800  0.05925000  0.75000000  1
  Cl  Cl11  1  0.05925000  0.81158200  0.25000000  1
  Cl  Cl12  1  0.75233200  0.94075000  0.25000000  1
  Cl  Cl13  1  0.81158200  0.75233200  0.75000000  1
  O  O14  1  0.63450600  0.15077300  0.50567500  1
  O  O15  1  0.15077300  0.51626700  0.00567500  1
  O  O16  1  0.51626700  0.36549400  0.99432500  1
  O  O17  1  0.84922700  0.48373300  0.99432500  1
  O  O18  1  0.36549400  0.84922700  0.00567500  1
  O  O19  1  0.48373300  0.63450600  0.49432500  1
  O  O20  1  0.36549400  0.84922700  0.49432500  1
  O  O21  1  0.48373300  0.63450600  0.00567500  1
  O  O22  1  0.84922700  0.48373300  0.50567500  1
  O  O23  1  0.15077300  0.51626700  0.49432500  1
  O  O24  1  0.51626700  0.36549400  0.50567500  1
  O  O25  1  0.63450600  0.15077300  0.99432500  1
