# generated using pymatgen
data_CaAl2O4
_symmetry_space_group_name_H-M   'P 1'
_cell_length_a   3.80716400
_cell_length_b   5.61105300
_cell_length_c   7.11233849
_cell_angle_alpha   78.87736081
_cell_angle_beta   90.00000000
_cell_angle_gamma   90.00000000
_symmetry_Int_Tables_number   1
_chemical_formula_structural   CaAl2O4
_chemical_formula_sum   'Ca2 Al4 O8'
_cell_volume   149.08131798
_cell_formula_units_Z   2
loop_
 _symmetry_equiv_pos_site_id
 _symmetry_equiv_pos_as_xyz
  1  'x, y, z'
loop_
 _atom_site_type_symbol
 _atom_site_label
 _atom_site_symmetry_multiplicity
 _atom_site_fract_x
 _atom_site_fract_y
 _atom_site_fract_z
 _atom_site_occupancy
  Ca  Ca0  1  0.75000000  0.73169300  0.57199100  1
  Ca  Ca1  1  0.25000000  0.26830700  0.42800900  1
  Al  Al2  1  0.75000000  0.84727200  0.12900900  1
  Al  Al3  1  0.25000000  0.15272800  0.87099100  1
  Al  Al4  1  0.75000000  0.34494300  0.11244800  1
  Al  Al5  1  0.25000000  0.65505700  0.88755200  1
  O  O6  1  0.25000000  0.94140800  0.69261100  1
  O  O7  1  0.25000000  0.85874500  0.07116300  1
  O  O8  1  0.25000000  0.45569200  0.69672900  1
  O  O9  1  0.75000000  0.64269600  0.92550500  1
  O  O10  1  0.75000000  0.54430800  0.30327100  1
  O  O11  1  0.75000000  0.14125500  0.92883700  1
  O  O12  1  0.25000000  0.35730400  0.07449500  1
  O  O13  1  0.75000000  0.05859200  0.30738900  1
