# generated using pymatgen
data_KPrTe4
_symmetry_space_group_name_H-M   'P 1'
_cell_length_a   6.97049500
_cell_length_b   6.97049500
_cell_length_c   9.02564700
_cell_angle_alpha   90.00000000
_cell_angle_beta   90.00000000
_cell_angle_gamma   90.00000000
_symmetry_Int_Tables_number   1
_chemical_formula_structural   KPrTe4
_chemical_formula_sum   'K2 Pr2 Te8'
_cell_volume   438.53633623
_cell_formula_units_Z   2
loop_
 _symmetry_equiv_pos_site_id
 _symmetry_equiv_pos_as_xyz
  1  'x, y, z'
loop_
 _atom_site_type_symbol
 _atom_site_label
 _atom_site_symmetry_multiplicity
 _atom_site_fract_x
 _atom_site_fract_y
 _atom_site_fract_z
 _atom_site_occupancy
  K  K0  1  0.50000000  0.50000000  0.00000000  1
  K  K1  1  0.00000000  0.00000000  0.00000000  1
  Pr  Pr2  1  0.50000000  0.50000000  0.50000000  1
  Pr  Pr3  1  0.00000000  0.00000000  0.50000000  1
  Te  Te4  1  0.35640900  0.85640900  0.28498600  1
  Te  Te5  1  0.14359100  0.35640900  0.28498600  1
  Te  Te6  1  0.85640900  0.64359100  0.28498600  1
  Te  Te7  1  0.35640900  0.14359100  0.71501400  1
  Te  Te8  1  0.64359100  0.85640900  0.71501400  1
  Te  Te9  1  0.64359100  0.14359100  0.28498600  1
  Te  Te10  1  0.85640900  0.35640900  0.71501400  1
  Te  Te11  1  0.14359100  0.64359100  0.71501400  1
