# generated using pymatgen
data_Ag2Hg(SeO3)2
_symmetry_space_group_name_H-M   'P 1'
_cell_length_a   7.05709600
_cell_length_b   11.41040000
_cell_length_c   17.26006800
_cell_angle_alpha   90.00000000
_cell_angle_beta   90.00000000
_cell_angle_gamma   90.00000000
_symmetry_Int_Tables_number   1
_chemical_formula_structural   Ag2Hg(SeO3)2
_chemical_formula_sum   'Ag16 Hg8 Se16 O48'
_cell_volume   1389.85468996
_cell_formula_units_Z   8
loop_
 _symmetry_equiv_pos_site_id
 _symmetry_equiv_pos_as_xyz
  1  'x, y, z'
loop_
 _atom_site_type_symbol
 _atom_site_label
 _atom_site_symmetry_multiplicity
 _atom_site_fract_x
 _atom_site_fract_y
 _atom_site_fract_z
 _atom_site_occupancy
  Ag  Ag0  1  0.88425000  0.90567200  0.24242300  1
  Ag  Ag1  1  0.35214200  0.11940800  0.95556000  1
  Ag  Ag2  1  0.61575000  0.09432800  0.74242300  1
  Ag  Ag3  1  0.85214200  0.11940800  0.54444000  1
  Ag  Ag4  1  0.38425000  0.59432800  0.75757700  1
  Ag  Ag5  1  0.85214200  0.38059200  0.04444000  1
  Ag  Ag6  1  0.88425000  0.59432800  0.74242300  1
  Ag  Ag7  1  0.14785800  0.61940800  0.95556000  1
  Ag  Ag8  1  0.11575000  0.40567200  0.25757700  1
  Ag  Ag9  1  0.38425000  0.90567200  0.25757700  1
  Ag  Ag10  1  0.11575000  0.09432800  0.75757700  1
  Ag  Ag11  1  0.61575000  0.40567200  0.24242300  1
  Ag  Ag12  1  0.14785800  0.88059200  0.45556000  1
  Ag  Ag13  1  0.35214200  0.38059200  0.45556000  1
  Ag  Ag14  1  0.64785800  0.61940800  0.54444000  1
  Ag  Ag15  1  0.64785800  0.88059200  0.04444000  1
  Hg  Hg16  1  0.12464400  0.16134500  0.14924400  1
  Hg  Hg17  1  0.87535600  0.83865500  0.85075600  1
  Hg  Hg18  1  0.87535600  0.66134500  0.35075600  1
  Hg  Hg19  1  0.12464400  0.33865500  0.64924400  1
  Hg  Hg20  1  0.62464400  0.16134500  0.35075600  1
  Hg  Hg21  1  0.62464400  0.33865500  0.85075600  1
  Hg  Hg22  1  0.37535600  0.66134500  0.14924400  1
  Hg  Hg23  1  0.37535600  0.83865500  0.64924400  1
  Se  Se24  1  0.16332300  0.36778300  0.85499300  1
  Se  Se25  1  0.83470900  0.38182900  0.43139700  1
  Se  Se26  1  0.66332300  0.36778300  0.64500700  1
  Se  Se27  1  0.66332300  0.13221700  0.14500700  1
  Se  Se28  1  0.16529100  0.61817100  0.56860300  1
  Se  Se29  1  0.33667700  0.63221700  0.35499300  1
  Se  Se30  1  0.33667700  0.86778300  0.85499300  1
  Se  Se31  1  0.33470900  0.38182900  0.06860300  1
  Se  Se32  1  0.83470900  0.11817100  0.93139700  1
  Se  Se33  1  0.66529100  0.61817100  0.93139700  1
  Se  Se34  1  0.83667700  0.63221700  0.14500700  1
  Se  Se35  1  0.33470900  0.11817100  0.56860300  1
  Se  Se36  1  0.83667700  0.86778300  0.64500700  1
  Se  Se37  1  0.66529100  0.88182900  0.43139700  1
  Se  Se38  1  0.16332300  0.13221700  0.35499300  1
  Se  Se39  1  0.16529100  0.88182900  0.06860300  1
  O  O40  1  0.83424200  0.78066900  0.46519000  1
  O  O41  1  0.17162600  0.53887000  0.39590900  1
  O  O42  1  0.14142800  0.06289700  0.26352300  1
  O  O43  1  0.30858500  0.24801600  0.83652100  1
  O  O44  1  0.14142800  0.43710300  0.76352300  1
  O  O45  1  0.35857200  0.93710300  0.76352300  1
  O  O46  1  0.30360100  0.00633900  0.08005000  1
  O  O47  1  0.66575800  0.21933100  0.96519000  1
  O  O48  1  0.33424200  0.71933100  0.53481000  1
  O  O49  1  0.15041900  0.67214400  0.66340000  1
  O  O50  1  0.30360100  0.49366100  0.58005000  1
  O  O51  1  0.30858500  0.25198400  0.33652100  1
  O  O52  1  0.84958100  0.17214400  0.83660000  1
  O  O53  1  0.84958100  0.32785600  0.33660000  1
  O  O54  1  0.34958100  0.32785600  0.16340000  1
  O  O55  1  0.85857200  0.56289700  0.23647700  1
  O  O56  1  0.69141500  0.75198400  0.16347900  1
  O  O57  1  0.16575800  0.21933100  0.53481000  1
  O  O58  1  0.65041900  0.67214400  0.83660000  1
  O  O59  1  0.19639900  0.99366100  0.58005000  1
  O  O60  1  0.15041900  0.82785600  0.16340000  1
  O  O61  1  0.80360100  0.49366100  0.91995000  1
  O  O62  1  0.66575800  0.28066900  0.46519000  1
  O  O63  1  0.16575800  0.28066900  0.03481000  1
  O  O64  1  0.85857200  0.93710300  0.73647700  1
  O  O65  1  0.19141500  0.75198400  0.33652100  1
  O  O66  1  0.80858500  0.24801600  0.66347900  1
  O  O67  1  0.35857200  0.56289700  0.26352300  1
  O  O68  1  0.67162600  0.96113000  0.60409100  1
  O  O69  1  0.69639900  0.50633900  0.41995000  1
  O  O70  1  0.17162600  0.96113000  0.89590900  1
  O  O71  1  0.19141500  0.74801600  0.83652100  1
  O  O72  1  0.80858500  0.25198400  0.16347900  1
  O  O73  1  0.82837400  0.46113000  0.60409100  1
  O  O74  1  0.33424200  0.78066900  0.03481000  1
  O  O75  1  0.82837400  0.03887000  0.10409100  1
  O  O76  1  0.69141500  0.74801600  0.66347900  1
  O  O77  1  0.32837400  0.03887000  0.39590900  1
  O  O78  1  0.83424200  0.71933100  0.96519000  1
  O  O79  1  0.80360100  0.00633900  0.41995000  1
  O  O80  1  0.69639900  0.99366100  0.91995000  1
  O  O81  1  0.64142800  0.43710300  0.73647700  1
  O  O82  1  0.64142800  0.06289700  0.23647700  1
  O  O83  1  0.34958100  0.17214400  0.66340000  1
  O  O84  1  0.19639900  0.50633900  0.08005000  1
  O  O85  1  0.65041900  0.82785600  0.33660000  1
  O  O86  1  0.32837400  0.46113000  0.89590900  1
  O  O87  1  0.67162600  0.53887000  0.10409100  1
