# generated using pymatgen
data_Sm7BP2O17
_symmetry_space_group_name_H-M   'P 1'
_cell_length_a   17.62250200
_cell_length_b   6.82481700
_cell_length_c   13.29483804
_cell_angle_alpha   66.53689115
_cell_angle_beta   90.00000000
_cell_angle_gamma   90.00000000
_symmetry_Int_Tables_number   1
_chemical_formula_structural   Sm7BP2O17
_chemical_formula_sum   'Sm28 B4 P8 O68'
_cell_volume   1466.76620900
_cell_formula_units_Z   4
loop_
 _symmetry_equiv_pos_site_id
 _symmetry_equiv_pos_as_xyz
  1  'x, y, z'
loop_
 _atom_site_type_symbol
 _atom_site_label
 _atom_site_symmetry_multiplicity
 _atom_site_fract_x
 _atom_site_fract_y
 _atom_site_fract_z
 _atom_site_occupancy
  Sm  Sm0  1  0.72430600  0.20428700  0.82005100  1
  Sm  Sm1  1  0.86506400  0.22139400  0.56806600  1
  Sm  Sm2  1  0.22544700  0.28200100  0.40531600  1
  Sm  Sm3  1  0.36506400  0.77860600  0.93193400  1
  Sm  Sm4  1  0.01884300  0.80182700  0.71121100  1
  Sm  Sm5  1  0.34653500  0.81361300  0.42596100  1
  Sm  Sm6  1  0.10560600  0.31048700  0.69827600  1
  Sm  Sm7  1  0.84653500  0.18638700  0.07403900  1
  Sm  Sm8  1  0.22430600  0.79571300  0.67994900  1
  Sm  Sm9  1  0.44561200  0.28249600  0.49306300  1
  Sm  Sm10  1  0.51884300  0.19817300  0.78878900  1
  Sm  Sm11  1  0.72544700  0.71799900  0.09468400  1
  Sm  Sm12  1  0.77455300  0.71799900  0.59468400  1
  Sm  Sm13  1  0.48115700  0.80182700  0.21121100  1
  Sm  Sm14  1  0.65346500  0.18638700  0.57403900  1
  Sm  Sm15  1  0.15346500  0.81361300  0.92596100  1
  Sm  Sm16  1  0.13493600  0.77860600  0.43193400  1
  Sm  Sm17  1  0.98115700  0.19817300  0.28878900  1
  Sm  Sm18  1  0.55438800  0.71750400  0.50693700  1
  Sm  Sm19  1  0.63493600  0.22139400  0.06806600  1
  Sm  Sm20  1  0.27455300  0.28200100  0.90531600  1
  Sm  Sm21  1  0.60560600  0.68951300  0.80172400  1
  Sm  Sm22  1  0.39439400  0.31048700  0.19827600  1
  Sm  Sm23  1  0.89439400  0.68951300  0.30172400  1
  Sm  Sm24  1  0.05438800  0.28249600  0.99306300  1
  Sm  Sm25  1  0.94561200  0.71750400  0.00693700  1
  Sm  Sm26  1  0.27569400  0.79571300  0.17994900  1
  Sm  Sm27  1  0.77569400  0.20428700  0.32005100  1
  B  B28  1  0.93226000  0.74910300  0.49927600  1
  B  B29  1  0.06774000  0.25089700  0.50072400  1
  B  B30  1  0.43226000  0.25089700  0.00072400  1
  B  B31  1  0.56774000  0.74910300  0.99927600  1
  P  P32  1  0.80140500  0.71568800  0.83548800  1
  P  P33  1  0.06264500  0.77996200  0.18270700  1
  P  P34  1  0.93735500  0.22003800  0.81729300  1
  P  P35  1  0.30140500  0.28431200  0.66451200  1
  P  P36  1  0.43735500  0.77996200  0.68270700  1
  P  P37  1  0.19859500  0.28431200  0.16451200  1
  P  P38  1  0.69859500  0.71568800  0.33548800  1
  P  P39  1  0.56264500  0.22003800  0.31729300  1
  O  O40  1  0.14360400  0.20358600  0.88127900  1
  O  O41  1  0.25750700  0.62887500  0.37460800  1
  O  O42  1  0.86771200  0.04463100  0.26003900  1
  O  O43  1  0.24249300  0.62887500  0.87460800  1
  O  O44  1  0.25851500  0.42532000  0.19249400  1
  O  O45  1  0.35639600  0.20358600  0.38127900  1
  O  O46  1  0.63981800  0.28586300  0.26213900  1
  O  O47  1  0.17236700  0.12014800  0.27742500  1
  O  O48  1  0.01262700  0.19714300  0.58235700  1
  O  O49  1  0.13380700  0.42517700  0.09456000  1
  O  O50  1  0.13981800  0.71413700  0.23786100  1
  O  O51  1  0.51262700  0.80285700  0.91764300  1
  O  O52  1  0.76475700  0.83302000  0.90202700  1
  O  O53  1  0.23524300  0.16698000  0.09797300  1
  O  O54  1  0.12290600  0.40181500  0.50086700  1
  O  O55  1  0.63228800  0.04463100  0.76003900  1
  O  O56  1  0.64360400  0.79641400  0.61872100  1
  O  O57  1  0.67236700  0.87985200  0.22257500  1
  O  O58  1  0.95723800  0.36716000  0.09778500  1
  O  O59  1  0.24148500  0.42532000  0.69249400  1
  O  O60  1  0.74148500  0.57468000  0.80750600  1
  O  O61  1  0.42085300  0.15922400  0.92674400  1
  O  O62  1  0.60920300  0.31688100  0.87548600  1
  O  O63  1  0.53097700  0.02090400  0.30309700  1
  O  O64  1  0.86018200  0.28586300  0.76213900  1
  O  O65  1  0.10920300  0.68311900  0.62451400  1
  O  O66  1  0.26521600  0.90316800  0.99283600  1
  O  O67  1  0.48737300  0.19714300  0.08235700  1
  O  O68  1  0.73478400  0.09683200  0.00716400  1
  O  O69  1  0.07914700  0.15922400  0.42674400  1
  O  O70  1  0.56455600  0.14918200  0.44476400  1
  O  O71  1  0.62290600  0.59818500  0.99913300  1
  O  O72  1  0.63380700  0.57482300  0.40544000  1
  O  O73  1  0.03097700  0.97909600  0.19690300  1
  O  O74  1  0.74249300  0.37112500  0.62539200  1
  O  O75  1  0.93544400  0.14918200  0.94476400  1
  O  O76  1  0.92085300  0.84077600  0.57325600  1
  O  O77  1  0.45723800  0.63284000  0.40221500  1
  O  O78  1  0.89079700  0.31688100  0.37548600  1
  O  O79  1  0.75851500  0.57468000  0.30750600  1
  O  O80  1  0.13228800  0.95536900  0.73996100  1
  O  O81  1  0.37709400  0.40181500  0.00086700  1
  O  O82  1  0.50444700  0.40679900  0.27113300  1
  O  O83  1  0.99555300  0.40679900  0.77113300  1
  O  O84  1  0.43544400  0.85081800  0.55523600  1
  O  O85  1  0.36771200  0.95536900  0.23996100  1
  O  O86  1  0.39079700  0.68311900  0.12451400  1
  O  O87  1  0.87709400  0.59818500  0.49913300  1
  O  O88  1  0.57914700  0.84077600  0.07325600  1
  O  O89  1  0.36018200  0.71413700  0.73786100  1
  O  O90  1  0.98737300  0.80285700  0.41764300  1
  O  O91  1  0.00444700  0.59320100  0.22886700  1
  O  O92  1  0.96902300  0.02090400  0.80309700  1
  O  O93  1  0.86619300  0.57482300  0.90544000  1
  O  O94  1  0.46902300  0.97909600  0.69690300  1
  O  O95  1  0.76521600  0.09683200  0.50716400  1
  O  O96  1  0.82763300  0.87985200  0.72257500  1
  O  O97  1  0.49555300  0.59320100  0.72886700  1
  O  O98  1  0.32763300  0.12014800  0.77742500  1
  O  O99  1  0.36619300  0.42517700  0.59456000  1
  O  O100  1  0.73524300  0.83302000  0.40202700  1
  O  O101  1  0.04276200  0.63284000  0.90221500  1
  O  O102  1  0.54276200  0.36716000  0.59778500  1
  O  O103  1  0.75750700  0.37112500  0.12539200  1
  O  O104  1  0.06455600  0.85081800  0.05523600  1
  O  O105  1  0.85639600  0.79641400  0.11872100  1
  O  O106  1  0.26475700  0.16698000  0.59797300  1
  O  O107  1  0.23478400  0.90316800  0.49283600  1
