# generated using pymatgen
data_AgAsO3
_symmetry_space_group_name_H-M   'P 1'
_cell_length_a   6.75551900
_cell_length_b   12.79082800
_cell_length_c   20.00608600
_cell_angle_alpha   90.00000000
_cell_angle_beta   90.00000000
_cell_angle_gamma   90.00000000
_symmetry_Int_Tables_number   1
_chemical_formula_structural   AgAsO3
_chemical_formula_sum   'Ag24 As24 O72'
_cell_volume   1728.69951483
_cell_formula_units_Z   24
loop_
 _symmetry_equiv_pos_site_id
 _symmetry_equiv_pos_as_xyz
  1  'x, y, z'
loop_
 _atom_site_type_symbol
 _atom_site_label
 _atom_site_symmetry_multiplicity
 _atom_site_fract_x
 _atom_site_fract_y
 _atom_site_fract_z
 _atom_site_occupancy
  Ag  Ag0  1  0.54612800  0.63293300  0.61193600  1
  Ag  Ag1  1  0.00493000  0.54929000  0.05322100  1
  Ag  Ag2  1  0.10335700  0.62918200  0.86594800  1
  Ag  Ag3  1  0.50143400  0.87516300  0.93932400  1
  Ag  Ag4  1  0.59726600  0.21046400  0.69821500  1
  Ag  Ag5  1  0.50143400  0.37516300  0.56067600  1
  Ag  Ag6  1  0.54612800  0.13293300  0.88806400  1
  Ag  Ag7  1  0.40273400  0.71046400  0.30178500  1
  Ag  Ag8  1  0.93597800  0.39252700  0.18987900  1
  Ag  Ag9  1  0.99507000  0.04929000  0.94677900  1
  Ag  Ag10  1  0.89664300  0.62918200  0.36594800  1
  Ag  Ag11  1  0.45387200  0.63293300  0.11193600  1
  Ag  Ag12  1  0.59726600  0.71046400  0.80178500  1
  Ag  Ag13  1  0.40273400  0.21046400  0.19821500  1
  Ag  Ag14  1  0.89664300  0.12918200  0.13405200  1
  Ag  Ag15  1  0.93597800  0.89252700  0.31012100  1
  Ag  Ag16  1  0.00493000  0.04929000  0.44677900  1
  Ag  Ag17  1  0.06402200  0.89252700  0.81012100  1
  Ag  Ag18  1  0.06402200  0.39252700  0.68987900  1
  Ag  Ag19  1  0.49856600  0.87516300  0.43932400  1
  Ag  Ag20  1  0.10335700  0.12918200  0.63405200  1
  Ag  Ag21  1  0.49856600  0.37516300  0.06067600  1
  Ag  Ag22  1  0.99507000  0.54929000  0.55322100  1
  Ag  Ag23  1  0.45387200  0.13293300  0.38806400  1
  As  As24  1  0.20719200  0.38240400  0.37534500  1
  As  As25  1  0.20719200  0.88240400  0.12465500  1
  As  As26  1  0.45663600  0.45945400  0.24502600  1
  As  As27  1  0.70724100  0.88090700  0.12396100  1
  As  As28  1  0.03429700  0.80172000  0.49419800  1
  As  As29  1  0.45663600  0.95945400  0.25497400  1
  As  As30  1  0.79280800  0.88240400  0.62465500  1
  As  As31  1  0.96570300  0.30172000  0.50580200  1
  As  As32  1  0.79280800  0.38240400  0.87534500  1
  As  As33  1  0.29275900  0.88090700  0.62396100  1
  As  As34  1  0.96570300  0.80172000  0.99419800  1
  As  As35  1  0.04853600  0.69459200  0.69587300  1
  As  As36  1  0.54051100  0.56895200  0.94620800  1
  As  As37  1  0.04853600  0.19459200  0.80412700  1
  As  As38  1  0.29275900  0.38090700  0.87603900  1
  As  As39  1  0.70724100  0.38090700  0.37603900  1
  As  As40  1  0.45948900  0.56895200  0.44620800  1
  As  As41  1  0.03429700  0.30172000  0.00580200  1
  As  As42  1  0.45948900  0.06895200  0.05379200  1
  As  As43  1  0.95146400  0.69459200  0.19587300  1
  As  As44  1  0.54051100  0.06895200  0.55379200  1
  As  As45  1  0.95146400  0.19459200  0.30412700  1
  As  As46  1  0.54336400  0.95945400  0.75497400  1
  As  As47  1  0.54336400  0.45945400  0.74502600  1
  O  O48  1  0.13095300  0.24156600  0.36195000  1
  O  O49  1  0.54432400  0.82942200  0.60917400  1
  O  O50  1  0.02082800  0.71801500  0.27688500  1
  O  O51  1  0.83320600  0.36772600  0.96845300  1
  O  O52  1  0.04226100  0.43336300  0.86015400  1
  O  O53  1  0.25045700  0.89618800  0.21804600  1
  O  O54  1  0.86904700  0.74156600  0.63805000  1
  O  O55  1  0.54273500  0.87987900  0.31697200  1
  O  O56  1  0.10538300  0.37621800  0.07260900  1
  O  O57  1  0.77614400  0.79043200  0.05432000  1
  O  O58  1  0.09822000  0.57144200  0.67036100  1
  O  O59  1  0.36434600  0.47592500  0.80834200  1
  O  O60  1  0.95773900  0.43336300  0.36015400  1
  O  O61  1  0.83320600  0.86772600  0.53154700  1
  O  O62  1  0.71891800  0.52191100  0.88879700  1
  O  O63  1  0.50838900  0.69130800  0.41845000  1
  O  O64  1  0.04226100  0.93336300  0.63984600  1
  O  O65  1  0.97580700  0.17654100  0.02532900  1
  O  O66  1  0.16679400  0.86772600  0.03154700  1
  O  O67  1  0.67712800  0.49133100  0.43783300  1
  O  O68  1  0.89461700  0.87621800  0.92739100  1
  O  O69  1  0.67712800  0.99133100  0.06216700  1
  O  O70  1  0.02419300  0.67654100  0.97467100  1
  O  O71  1  0.90178000  0.07144200  0.32963900  1
  O  O72  1  0.32287200  0.99133100  0.56216700  1
  O  O73  1  0.22385600  0.79043200  0.55432000  1
  O  O74  1  0.60684100  0.08206600  0.77918700  1
  O  O75  1  0.60684100  0.58206600  0.72081300  1
  O  O76  1  0.50838900  0.19130800  0.08155000  1
  O  O77  1  0.90178000  0.57144200  0.17036100  1
  O  O78  1  0.45567600  0.32942200  0.39082600  1
  O  O79  1  0.73504300  0.77165900  0.18544300  1
  O  O80  1  0.45567600  0.82942200  0.10917400  1
  O  O81  1  0.49161100  0.19130800  0.58155000  1
  O  O82  1  0.26495700  0.77165900  0.68544300  1
  O  O83  1  0.97917200  0.21801500  0.72311500  1
  O  O84  1  0.39009200  0.54882000  0.52741900  1
  O  O85  1  0.71891800  0.02191100  0.61120300  1
  O  O86  1  0.39009200  0.04882000  0.97258100  1
  O  O87  1  0.60990800  0.54882000  0.02741900  1
  O  O88  1  0.13095300  0.74156600  0.13805000  1
  O  O89  1  0.39315900  0.58206600  0.22081300  1
  O  O90  1  0.74954300  0.89618800  0.71804600  1
  O  O91  1  0.95773900  0.93336300  0.13984600  1
  O  O92  1  0.09822000  0.07144200  0.82963900  1
  O  O93  1  0.02419300  0.17654100  0.52532900  1
  O  O94  1  0.36434600  0.97592500  0.69165800  1
  O  O95  1  0.54273500  0.37987900  0.18302800  1
  O  O96  1  0.97580700  0.67654100  0.47467100  1
  O  O97  1  0.54432400  0.32942200  0.89082600  1
  O  O98  1  0.28108200  0.02191100  0.11120300  1
  O  O99  1  0.63565400  0.47592500  0.30834200  1
  O  O100  1  0.45726500  0.87987900  0.81697200  1
  O  O101  1  0.60990800  0.04882000  0.47258100  1
  O  O102  1  0.97917200  0.71801500  0.77688500  1
  O  O103  1  0.02082800  0.21801500  0.22311500  1
  O  O104  1  0.25045700  0.39618800  0.28195400  1
  O  O105  1  0.45726500  0.37987900  0.68302800  1
  O  O106  1  0.28108200  0.52191100  0.38879700  1
  O  O107  1  0.74954300  0.39618800  0.78195400  1
  O  O108  1  0.63565400  0.97592500  0.19165800  1
  O  O109  1  0.49161100  0.69130800  0.91845000  1
  O  O110  1  0.86904700  0.24156600  0.86195000  1
  O  O111  1  0.16679400  0.36772600  0.46845300  1
  O  O112  1  0.22385600  0.29043200  0.94568000  1
  O  O113  1  0.77614400  0.29043200  0.44568000  1
  O  O114  1  0.32287200  0.49133100  0.93783300  1
  O  O115  1  0.39315900  0.08206600  0.27918700  1
  O  O116  1  0.26495700  0.27165900  0.81455700  1
  O  O117  1  0.89461700  0.37621800  0.57260900  1
  O  O118  1  0.73504300  0.27165900  0.31455700  1
  O  O119  1  0.10538300  0.87621800  0.42739100  1
