# generated using pymatgen
data_SiO2
_symmetry_space_group_name_H-M   'P 1'
_cell_length_a   19.60776200
_cell_length_b   19.60776200
_cell_length_c   7.49645000
_cell_angle_alpha   90.00000000
_cell_angle_beta   90.00000000
_cell_angle_gamma   90.00000000
_symmetry_Int_Tables_number   1
_chemical_formula_structural   SiO2
_chemical_formula_sum   'Si48 O96'
_cell_volume   2882.11763149
_cell_formula_units_Z   48
loop_
 _symmetry_equiv_pos_site_id
 _symmetry_equiv_pos_as_xyz
  1  'x, y, z'
loop_
 _atom_site_type_symbol
 _atom_site_label
 _atom_site_symmetry_multiplicity
 _atom_site_fract_x
 _atom_site_fract_y
 _atom_site_fract_z
 _atom_site_occupancy
  Si  Si0  1  0.24438700  0.14326700  0.40671900  1
  Si  Si1  1  0.41907600  0.69194000  0.03921100  1
  Si  Si2  1  0.19194000  0.08092400  0.03921100  1
  Si  Si3  1  0.14326700  0.24438700  0.59328100  1
  Si  Si4  1  0.69194000  0.41907600  0.96078900  1
  Si  Si5  1  0.85673300  0.75561300  0.59328100  1
  Si  Si6  1  0.74438700  0.35673300  0.59328100  1
  Si  Si7  1  0.92024900  0.69239000  0.24937200  1
  Si  Si8  1  0.80761000  0.42024900  0.24937200  1
  Si  Si9  1  0.64326700  0.74438700  0.40671900  1
  Si  Si10  1  0.07975100  0.69239000  0.24937200  1
  Si  Si11  1  0.19239000  0.57975100  0.24937200  1
  Si  Si12  1  0.08092400  0.80806000  0.96078900  1
  Si  Si13  1  0.57975100  0.19239000  0.75062800  1
  Si  Si14  1  0.42024900  0.19239000  0.75062800  1
  Si  Si15  1  0.25561300  0.64326700  0.59328100  1
  Si  Si16  1  0.57975100  0.80761000  0.75062800  1
  Si  Si17  1  0.75561300  0.85673300  0.40671900  1
  Si  Si18  1  0.35673300  0.74438700  0.40671900  1
  Si  Si19  1  0.08092400  0.19194000  0.96078900  1
  Si  Si20  1  0.80806000  0.91907600  0.03921100  1
  Si  Si21  1  0.35673300  0.25561300  0.40671900  1
  Si  Si22  1  0.30761000  0.07975100  0.75062800  1
  Si  Si23  1  0.42024900  0.80761000  0.75062800  1
  Si  Si24  1  0.30806000  0.58092400  0.96078900  1
  Si  Si25  1  0.75561300  0.14326700  0.40671900  1
  Si  Si26  1  0.64326700  0.25561300  0.40671900  1
  Si  Si27  1  0.58092400  0.30806000  0.03921100  1
  Si  Si28  1  0.91907600  0.80806000  0.96078900  1
  Si  Si29  1  0.74438700  0.64326700  0.59328100  1
  Si  Si30  1  0.24438700  0.85673300  0.40671900  1
  Si  Si31  1  0.41907600  0.30806000  0.03921100  1
  Si  Si32  1  0.30761000  0.92024900  0.75062800  1
  Si  Si33  1  0.69239000  0.07975100  0.75062800  1
  Si  Si34  1  0.58092400  0.69194000  0.03921100  1
  Si  Si35  1  0.30806000  0.41907600  0.96078900  1
  Si  Si36  1  0.91907600  0.19194000  0.96078900  1
  Si  Si37  1  0.80761000  0.57975100  0.24937200  1
  Si  Si38  1  0.80806000  0.08092400  0.03921100  1
  Si  Si39  1  0.14326700  0.75561300  0.59328100  1
  Si  Si40  1  0.69194000  0.58092400  0.96078900  1
  Si  Si41  1  0.92024900  0.30761000  0.24937200  1
  Si  Si42  1  0.25561300  0.35673300  0.59328100  1
  Si  Si43  1  0.19239000  0.42024900  0.24937200  1
  Si  Si44  1  0.69239000  0.92024900  0.75062800  1
  Si  Si45  1  0.85673300  0.24438700  0.59328100  1
  Si  Si46  1  0.07975100  0.30761000  0.24937200  1
  Si  Si47  1  0.19194000  0.91907600  0.03921100  1
  O  O48  1  0.12150600  0.87849400  0.00000000  1
  O  O49  1  0.12150600  0.12150600  0.00000000  1
  O  O50  1  0.00000000  0.67336100  0.22244300  1
  O  O51  1  0.89716800  0.24835900  0.10962000  1
  O  O52  1  0.70236800  0.79763200  0.34246000  1
  O  O53  1  0.32206600  0.67793400  0.50000000  1
  O  O54  1  0.75164100  0.89716800  0.89038000  1
  O  O55  1  0.25164100  0.39716800  0.10962000  1
  O  O56  1  0.71896800  0.90798800  0.54732800  1
  O  O57  1  0.60283200  0.25164100  0.89038000  1
  O  O58  1  0.90107200  0.22066200  0.76364800  1
  O  O59  1  0.12428200  0.37571800  0.21110600  1
  O  O60  1  0.74835900  0.60283200  0.10962000  1
  O  O61  1  0.40798800  0.78103200  0.54732800  1
  O  O62  1  0.50000000  0.17336100  0.77755700  1
  O  O63  1  0.74835900  0.39716800  0.10962000  1
  O  O64  1  0.29763200  0.79763200  0.34246000  1
  O  O65  1  0.50000000  0.82663900  0.77755700  1
  O  O66  1  0.67622700  0.50000000  0.97248100  1
  O  O67  1  0.50000000  0.67622700  0.02751900  1
  O  O68  1  0.40107200  0.72066200  0.23635200  1
  O  O69  1  0.67793400  0.67793400  0.50000000  1
  O  O70  1  0.82206600  0.17793400  0.50000000  1
  O  O71  1  0.59201200  0.78103200  0.54732800  1
  O  O72  1  0.22066200  0.90107200  0.23635200  1
  O  O73  1  0.62428200  0.87571800  0.78889400  1
  O  O74  1  0.09201200  0.28103200  0.45267200  1
  O  O75  1  0.10283200  0.75164100  0.10962000  1
  O  O76  1  0.09201200  0.71896800  0.45267200  1
  O  O77  1  0.17622700  0.00000000  0.02751900  1
  O  O78  1  0.87849400  0.87849400  0.00000000  1
  O  O79  1  0.59201200  0.21896800  0.54732800  1
  O  O80  1  0.24835900  0.10283200  0.89038000  1
  O  O81  1  0.00000000  0.17622700  0.97248100  1
  O  O82  1  0.00000000  0.32663900  0.22244300  1
  O  O83  1  0.77933800  0.90107200  0.23635200  1
  O  O84  1  0.20236800  0.29763200  0.65754000  1
  O  O85  1  0.67793400  0.32206600  0.50000000  1
  O  O86  1  0.87571800  0.62428200  0.21110600  1
  O  O87  1  0.28103200  0.09201200  0.54732800  1
  O  O88  1  0.37849400  0.37849400  0.00000000  1
  O  O89  1  0.37571800  0.12428200  0.78889400  1
  O  O90  1  0.90798800  0.71896800  0.45267200  1
  O  O91  1  0.39716800  0.74835900  0.89038000  1
  O  O92  1  0.09892800  0.22066200  0.76364800  1
  O  O93  1  0.70236800  0.20236800  0.34246000  1
  O  O94  1  0.75164100  0.10283200  0.89038000  1
  O  O95  1  0.62428200  0.12428200  0.78889400  1
  O  O96  1  0.82206600  0.82206600  0.50000000  1
  O  O97  1  0.39716800  0.25164100  0.89038000  1
  O  O98  1  0.82663900  0.50000000  0.22244300  1
  O  O99  1  0.79763200  0.70236800  0.65754000  1
  O  O100  1  0.82377300  0.00000000  0.02751900  1
  O  O101  1  0.24835900  0.89716800  0.89038000  1
  O  O102  1  0.89716800  0.75164100  0.10962000  1
  O  O103  1  0.32206600  0.32206600  0.50000000  1
  O  O104  1  0.37849400  0.62150600  0.00000000  1
  O  O105  1  0.28103200  0.90798800  0.54732800  1
  O  O106  1  0.72066200  0.40107200  0.76364800  1
  O  O107  1  0.17336100  0.50000000  0.22244300  1
  O  O108  1  0.29763200  0.20236800  0.34246000  1
  O  O109  1  0.27933800  0.59892800  0.76364800  1
  O  O110  1  0.67336100  0.00000000  0.77755700  1
  O  O111  1  0.62150600  0.62150600  0.00000000  1
  O  O112  1  0.00000000  0.82377300  0.97248100  1
  O  O113  1  0.72066200  0.59892800  0.76364800  1
  O  O114  1  0.25164100  0.60283200  0.10962000  1
  O  O115  1  0.21896800  0.59201200  0.45267200  1
  O  O116  1  0.77933800  0.09892800  0.23635200  1
  O  O117  1  0.59892800  0.72066200  0.23635200  1
  O  O118  1  0.21896800  0.40798800  0.45267200  1
  O  O119  1  0.50000000  0.32377300  0.02751900  1
  O  O120  1  0.09892800  0.77933800  0.76364800  1
  O  O121  1  0.87571800  0.37571800  0.21110600  1
  O  O122  1  0.59892800  0.27933800  0.23635200  1
  O  O123  1  0.90107200  0.77933800  0.76364800  1
  O  O124  1  0.10283200  0.24835900  0.10962000  1
  O  O125  1  0.17793400  0.17793400  0.50000000  1
  O  O126  1  0.27933800  0.40107200  0.76364800  1
  O  O127  1  0.22066200  0.09892800  0.23635200  1
  O  O128  1  0.87849400  0.12150600  0.00000000  1
  O  O129  1  0.32377300  0.50000000  0.97248100  1
  O  O130  1  0.90798800  0.28103200  0.45267200  1
  O  O131  1  0.62150600  0.37849400  0.00000000  1
  O  O132  1  0.78103200  0.59201200  0.45267200  1
  O  O133  1  0.79763200  0.29763200  0.65754000  1
  O  O134  1  0.32663900  0.00000000  0.77755700  1
  O  O135  1  0.37571800  0.87571800  0.78889400  1
  O  O136  1  0.71896800  0.09201200  0.54732800  1
  O  O137  1  0.40107200  0.27933800  0.23635200  1
  O  O138  1  0.17793400  0.82206600  0.50000000  1
  O  O139  1  0.40798800  0.21896800  0.54732800  1
  O  O140  1  0.60283200  0.74835900  0.89038000  1
  O  O141  1  0.78103200  0.40798800  0.45267200  1
  O  O142  1  0.12428200  0.62428200  0.21110600  1
  O  O143  1  0.20236800  0.70236800  0.65754000  1
