# generated using pymatgen
data_K2B6H2O11
_symmetry_space_group_name_H-M   'P 1'
_cell_length_a   6.70486800
_cell_length_b   9.16642500
_cell_length_c   18.25665742
_cell_angle_alpha   62.21851855
_cell_angle_beta   90.00000000
_cell_angle_gamma   90.00000000
_symmetry_Int_Tables_number   1
_chemical_formula_structural   K2B6H2O11
_chemical_formula_sum   'K8 B24 H8 O44'
_cell_volume   992.71151900
_cell_formula_units_Z   4
loop_
 _symmetry_equiv_pos_site_id
 _symmetry_equiv_pos_as_xyz
  1  'x, y, z'
loop_
 _atom_site_type_symbol
 _atom_site_label
 _atom_site_symmetry_multiplicity
 _atom_site_fract_x
 _atom_site_fract_y
 _atom_site_fract_z
 _atom_site_occupancy
  K  K0  1  0.66224100  0.89019100  0.12855200  1
  K  K1  1  0.91670300  0.32959100  0.65668100  1
  K  K2  1  0.08329700  0.67040900  0.34331900  1
  K  K3  1  0.83775900  0.89019100  0.62855200  1
  K  K4  1  0.33775900  0.10980900  0.87144800  1
  K  K5  1  0.41670300  0.67040900  0.84331900  1
  K  K6  1  0.16224100  0.10980900  0.37144800  1
  K  K7  1  0.58329700  0.32959100  0.15668100  1
  B  B8  1  0.60836300  0.48074600  0.33300500  1
  B  B9  1  0.81227900  0.75225200  0.48531900  1
  B  B10  1  0.29745300  0.06997200  0.66025600  1
  B  B11  1  0.96034200  0.23540300  0.04974100  1
  B  B12  1  0.32081200  0.79376900  0.64570100  1
  B  B13  1  0.18772100  0.24774800  0.51468100  1
  B  B14  1  0.03965800  0.76459700  0.95025900  1
  B  B15  1  0.39163700  0.51925400  0.66699500  1
  B  B16  1  0.17918800  0.79376900  0.14570100  1
  B  B17  1  0.82081200  0.20623100  0.85429900  1
  B  B18  1  0.67918800  0.20623100  0.35429900  1
  B  B19  1  0.10836300  0.51925400  0.16699500  1
  B  B20  1  0.79745300  0.93002800  0.83974400  1
  B  B21  1  0.83173700  0.30501600  0.44869800  1
  B  B22  1  0.33173700  0.69498400  0.05130200  1
  B  B23  1  0.20254700  0.06997200  0.16025600  1
  B  B24  1  0.46034200  0.76459700  0.45025900  1
  B  B25  1  0.31227900  0.24774800  0.01468100  1
  B  B26  1  0.68772100  0.75225200  0.98531900  1
  B  B27  1  0.89163700  0.48074600  0.83300500  1
  B  B28  1  0.16826300  0.69498400  0.55130200  1
  B  B29  1  0.53965800  0.23540300  0.54974100  1
  B  B30  1  0.70254700  0.93002800  0.33974400  1
  B  B31  1  0.66826300  0.30501600  0.94869800  1
  H  H32  1  0.14169600  0.99055800  0.76909900  1
  H  H33  1  0.64169600  0.00944200  0.73090100  1
  H  H34  1  0.52910400  0.70161600  0.31364000  1
  H  H35  1  0.97089600  0.70161600  0.81364000  1
  H  H36  1  0.85830400  0.00944200  0.23090100  1
  H  H37  1  0.35830400  0.99055800  0.26909900  1
  H  H38  1  0.02910400  0.29838400  0.18636000  1
  H  H39  1  0.47089600  0.29838400  0.68636000  1
  O  O40  1  0.70296600  0.17738900  0.92094600  1
  O  O41  1  0.29703400  0.82261100  0.07905400  1
  O  O42  1  0.05026100  0.32290700  0.45327300  1
  O  O43  1  0.49994500  0.37521600  0.70907200  1
  O  O44  1  0.51224700  0.83288400  0.36717700  1
  O  O45  1  0.79703400  0.17738900  0.42094600  1
  O  O46  1  0.38958000  0.27968200  0.49022200  1
  O  O47  1  0.76260500  0.25180800  0.03068300  1
  O  O48  1  0.99994500  0.62478400  0.79092800  1
  O  O49  1  0.93058000  0.35397100  0.81331800  1
  O  O50  1  0.73739500  0.25180800  0.53068300  1
  O  O51  1  0.64111600  0.85551600  0.90451100  1
  O  O52  1  0.73947000  0.92498700  0.76413400  1
  O  O53  1  0.20296600  0.82261100  0.57905400  1
  O  O54  1  0.75263800  0.46721500  0.38847900  1
  O  O55  1  0.11042000  0.27968200  0.99022200  1
  O  O56  1  0.34420900  0.89903000  0.67820400  1
  O  O57  1  0.84420900  0.10097000  0.82179600  1
  O  O58  1  0.55026100  0.67709300  0.04672700  1
  O  O59  1  0.23947000  0.07501300  0.73586600  1
  O  O60  1  0.26053000  0.07501300  0.23586600  1
  O  O61  1  0.98775300  0.83288400  0.86717700  1
  O  O62  1  0.94973900  0.67709300  0.54672700  1
  O  O63  1  0.24736200  0.53278500  0.61152100  1
  O  O64  1  0.74736200  0.46721500  0.88847900  1
  O  O65  1  0.65579100  0.10097000  0.32179600  1
  O  O66  1  0.43058000  0.64602900  0.68668200  1
  O  O67  1  0.76053000  0.92498700  0.26413400  1
  O  O68  1  0.50005500  0.62478400  0.29092800  1
  O  O69  1  0.00005500  0.37521600  0.20907200  1
  O  O70  1  0.15579100  0.89903000  0.17820400  1
  O  O71  1  0.48775300  0.16711600  0.63282300  1
  O  O72  1  0.85888400  0.85551600  0.40451100  1
  O  O73  1  0.26260500  0.74819200  0.46931700  1
  O  O74  1  0.06942000  0.64602900  0.18668200  1
  O  O75  1  0.56942000  0.35397100  0.31331800  1
  O  O76  1  0.23739500  0.74819200  0.96931700  1
  O  O77  1  0.44973900  0.32290700  0.95327300  1
  O  O78  1  0.61042000  0.72031800  0.50977800  1
  O  O79  1  0.88958000  0.72031800  0.00977800  1
  O  O80  1  0.35888400  0.14448400  0.09548900  1
  O  O81  1  0.25263800  0.53278500  0.11152100  1
  O  O82  1  0.14111600  0.14448400  0.59548900  1
  O  O83  1  0.01224700  0.16711600  0.13282300  1
