# generated using pymatgen
data_H2O
_symmetry_space_group_name_H-M   'P 1'
_cell_length_a   3.97078400
_cell_length_b   8.19844000
_cell_length_c   8.26686500
_cell_angle_alpha   90.00000000
_cell_angle_beta   90.00000000
_cell_angle_gamma   90.00000000
_symmetry_Int_Tables_number   1
_chemical_formula_structural   H2O
_chemical_formula_sum   'H24 O12'
_cell_volume   269.12146077
_cell_formula_units_Z   12
loop_
 _symmetry_equiv_pos_site_id
 _symmetry_equiv_pos_as_xyz
  1  'x, y, z'
loop_
 _atom_site_type_symbol
 _atom_site_label
 _atom_site_symmetry_multiplicity
 _atom_site_fract_x
 _atom_site_fract_y
 _atom_site_fract_z
 _atom_site_occupancy
  H  H0  1  0.35717500  0.91903000  0.39892600  1
  H  H1  1  0.73329800  0.08781600  0.69590900  1
  H  H2  1  0.89067100  0.15635700  0.32479500  1
  H  H3  1  0.56095900  0.27988700  0.97800800  1
  H  H4  1  0.93904100  0.72011300  0.47800800  1
  H  H5  1  0.10932900  0.65635700  0.17520500  1
  H  H6  1  0.26670200  0.58781600  0.80409100  1
  H  H7  1  0.64282500  0.41903000  0.10107400  1
  H  H8  1  0.06095900  0.22011300  0.02199200  1
  H  H9  1  0.01670100  0.95760100  0.65119500  1
  H  H10  1  0.32192400  0.22562100  0.52981700  1
  H  H11  1  0.48329900  0.04239900  0.15119500  1
  H  H12  1  0.67807600  0.72562100  0.97018300  1
  H  H13  1  0.17807600  0.77437900  0.02981700  1
  H  H14  1  0.76670200  0.91218400  0.19590900  1
  H  H15  1  0.98329900  0.45760100  0.84880500  1
  H  H16  1  0.51670100  0.54239900  0.34880500  1
  H  H17  1  0.23329800  0.41218400  0.30409100  1
  H  H18  1  0.14282500  0.08097000  0.89892600  1
  H  H19  1  0.85717500  0.58097000  0.60107400  1
  H  H20  1  0.82192400  0.27437900  0.47018300  1
  H  H21  1  0.60932900  0.84364300  0.82479500  1
  H  H22  1  0.43904100  0.77988700  0.52199200  1
  H  H23  1  0.39067100  0.34364300  0.67520500  1
  O  O24  1  0.87450600  0.99861500  0.74159400  1
  O  O25  1  0.37450600  0.50138500  0.25840600  1
  O  O26  1  0.62549400  0.00138500  0.24159400  1
  O  O27  1  0.50312900  0.75439200  0.88903200  1
  O  O28  1  0.24081200  0.13984700  0.99400500  1
  O  O29  1  0.00312900  0.74560800  0.11096800  1
  O  O30  1  0.74081200  0.36015300  0.00599500  1
  O  O31  1  0.49687100  0.25439200  0.61096800  1
  O  O32  1  0.25918800  0.86015300  0.49400500  1
  O  O33  1  0.12549400  0.49861500  0.75840600  1
  O  O34  1  0.99687100  0.24560800  0.38903200  1
  O  O35  1  0.75918800  0.63984700  0.50599500  1
