# generated using pymatgen
data_Na7Y2P7O24
_symmetry_space_group_name_H-M   'P 1'
_cell_length_a   5.45982200
_cell_length_b   12.43975200
_cell_length_c   16.43066038
_cell_angle_alpha   82.14912850
_cell_angle_beta   90.00000000
_cell_angle_gamma   90.00000000
_symmetry_Int_Tables_number   1
_chemical_formula_structural   Na7Y2P7O24
_chemical_formula_sum   'Na14 Y4 P14 O48'
_cell_volume   1105.49139067
_cell_formula_units_Z   2
loop_
 _symmetry_equiv_pos_site_id
 _symmetry_equiv_pos_as_xyz
  1  'x, y, z'
loop_
 _atom_site_type_symbol
 _atom_site_label
 _atom_site_symmetry_multiplicity
 _atom_site_fract_x
 _atom_site_fract_y
 _atom_site_fract_z
 _atom_site_occupancy
  Na  Na0  1  0.14633800  0.96237400  0.40584100  1
  Na  Na1  1  0.14633800  0.53762600  0.59415900  1
  Na  Na2  1  0.16348900  0.11032000  0.13698200  1
  Na  Na3  1  0.16348900  0.38968000  0.86301800  1
  Na  Na4  1  0.70067200  0.51677400  0.93595800  1
  Na  Na5  1  0.83651100  0.88968000  0.86301800  1
  Na  Na6  1  0.29932800  0.48322600  0.06404200  1
  Na  Na7  1  0.70067200  0.98322600  0.06404200  1
  Na  Na8  1  0.71702500  0.75000000  0.50000000  1
  Na  Na9  1  0.85366200  0.03762600  0.59415900  1
  Na  Na10  1  0.85366200  0.46237400  0.40584100  1
  Na  Na11  1  0.83651100  0.61032000  0.13698200  1
  Na  Na12  1  0.29932800  0.01677400  0.93595800  1
  Na  Na13  1  0.28297500  0.25000000  0.50000000  1
  Y  Y14  1  0.65135600  0.68713200  0.72526600  1
  Y  Y15  1  0.34864400  0.31286800  0.27473400  1
  Y  Y16  1  0.65135600  0.81286800  0.27473400  1
  Y  Y17  1  0.34864400  0.18713200  0.72526600  1
  P  P18  1  0.13667200  0.65699200  0.86964300  1
  P  P19  1  0.15714500  0.80488800  0.60981500  1
  P  P20  1  0.58328300  0.25000000  0.00000000  1
  P  P21  1  0.41671700  0.75000000  0.00000000  1
  P  P22  1  0.15714500  0.69511200  0.39018500  1
  P  P23  1  0.86332800  0.34300800  0.13035700  1
  P  P24  1  0.13667200  0.84300800  0.13035700  1
  P  P25  1  0.62759900  0.05415400  0.27857300  1
  P  P26  1  0.84285500  0.19511200  0.39018500  1
  P  P27  1  0.84285500  0.30488800  0.60981500  1
  P  P28  1  0.86332800  0.15699200  0.86964300  1
  P  P29  1  0.37240100  0.55415400  0.27857300  1
  P  P30  1  0.37240100  0.94584600  0.72142700  1
  P  P31  1  0.62759900  0.44584600  0.72142700  1
  O  O32  1  0.94066300  0.37682500  0.53486700  1
  O  O33  1  0.85334200  0.11930100  0.31508400  1
  O  O34  1  0.02246800  0.28929800  0.36243000  1
  O  O35  1  0.55424000  0.85577000  0.98405500  1
  O  O36  1  0.85334200  0.38069900  0.68491600  1
  O  O37  1  0.67797000  0.34712400  0.19899100  1
  O  O38  1  0.12146700  0.94954700  0.07360800  1
  O  O39  1  0.32203000  0.84712400  0.19899100  1
  O  O40  1  0.42239800  0.76519200  0.60644300  1
  O  O41  1  0.54669400  0.53818300  0.65430200  1
  O  O42  1  0.87853300  0.05045300  0.92639200  1
  O  O43  1  0.45330600  0.03818300  0.65430200  1
  O  O44  1  0.05933700  0.62317500  0.46513300  1
  O  O45  1  0.88959800  0.70468900  0.83776600  1
  O  O46  1  0.42165300  0.36540500  0.74801700  1
  O  O47  1  0.77082800  0.25224100  0.92357100  1
  O  O48  1  0.44576000  0.35577000  0.98405500  1
  O  O49  1  0.94066300  0.12317500  0.46513300  1
  O  O50  1  0.57834700  0.63459500  0.25198300  1
  O  O51  1  0.14665800  0.88069900  0.68491600  1
  O  O52  1  0.55424000  0.64423000  0.01594500  1
  O  O53  1  0.25202200  0.99827000  0.79068600  1
  O  O54  1  0.05933700  0.87682500  0.53486700  1
  O  O55  1  0.22917200  0.75224100  0.92357100  1
  O  O56  1  0.54669400  0.96181700  0.34569800  1
  O  O57  1  0.14665800  0.61930100  0.31508400  1
  O  O58  1  0.12146700  0.55045300  0.92639200  1
  O  O59  1  0.45330600  0.46181700  0.34569800  1
  O  O60  1  0.74797800  0.49827000  0.79068600  1
  O  O61  1  0.22917200  0.74775900  0.07642900  1
  O  O62  1  0.02246800  0.21070200  0.63757000  1
  O  O63  1  0.87853300  0.44954700  0.07360800  1
  O  O64  1  0.25202200  0.50173000  0.20931400  1
  O  O65  1  0.77082800  0.24775900  0.07642900  1
  O  O66  1  0.11040200  0.20468900  0.83776600  1
  O  O67  1  0.57760200  0.26519200  0.60644300  1
  O  O68  1  0.67797000  0.15287600  0.80100900  1
  O  O69  1  0.42165300  0.13459500  0.25198300  1
  O  O70  1  0.32203000  0.65287600  0.80100900  1
  O  O71  1  0.44576000  0.14423000  0.01594500  1
  O  O72  1  0.57760200  0.23480800  0.39355700  1
  O  O73  1  0.74797800  0.00173000  0.20931400  1
  O  O74  1  0.11040200  0.29531100  0.16223400  1
  O  O75  1  0.97753200  0.71070200  0.63757000  1
  O  O76  1  0.88959800  0.79531100  0.16223400  1
  O  O77  1  0.57834700  0.86540500  0.74801700  1
  O  O78  1  0.97753200  0.78929800  0.36243000  1
  O  O79  1  0.42239800  0.73480800  0.39355700  1
