# generated using pymatgen
data_K2Zn6O7
_symmetry_space_group_name_H-M   'P 1'
_cell_length_a   11.06905200
_cell_length_b   11.06905200
_cell_length_c   3.35673400
_cell_angle_alpha   90.00000000
_cell_angle_beta   90.00000000
_cell_angle_gamma   90.00000000
_symmetry_Int_Tables_number   1
_chemical_formula_structural   K2Zn6O7
_chemical_formula_sum   'K4 Zn12 O14'
_cell_volume   411.28018182
_cell_formula_units_Z   2
loop_
 _symmetry_equiv_pos_site_id
 _symmetry_equiv_pos_as_xyz
  1  'x, y, z'
loop_
 _atom_site_type_symbol
 _atom_site_label
 _atom_site_symmetry_multiplicity
 _atom_site_fract_x
 _atom_site_fract_y
 _atom_site_fract_z
 _atom_site_occupancy
  K  K0  1  0.35551500  0.35551500  0.50926700  1
  K  K1  1  0.85551500  0.14448500  0.00926700  1
  K  K2  1  0.64448500  0.64448500  0.50926700  1
  K  K3  1  0.14448500  0.85551500  0.00926700  1
  Zn  Zn4  1  0.58402500  0.15380900  0.49394500  1
  Zn  Zn5  1  0.08402500  0.34619100  0.99394500  1
  Zn  Zn6  1  0.88091900  0.88091900  0.49115900  1
  Zn  Zn7  1  0.15380900  0.58402500  0.49394500  1
  Zn  Zn8  1  0.61908100  0.38091900  0.99115900  1
  Zn  Zn9  1  0.91597500  0.65380900  0.99394500  1
  Zn  Zn10  1  0.11908100  0.11908100  0.49115900  1
  Zn  Zn11  1  0.34619100  0.08402500  0.99394500  1
  Zn  Zn12  1  0.38091900  0.61908100  0.99115900  1
  Zn  Zn13  1  0.41597500  0.84619100  0.49394500  1
  Zn  Zn14  1  0.65380900  0.91597500  0.99394500  1
  Zn  Zn15  1  0.84619100  0.41597500  0.49394500  1
  O  O16  1  0.99171500  0.31301200  0.49404700  1
  O  O17  1  0.18698800  0.49171500  0.99404700  1
  O  O18  1  0.31301200  0.99171500  0.49404700  1
  O  O19  1  0.81301200  0.50828500  0.99404700  1
  O  O20  1  0.68978600  0.31021400  0.49794400  1
  O  O21  1  0.50000000  0.50000000  0.06419200  1
  O  O22  1  0.18978600  0.18978600  0.99794400  1
  O  O23  1  0.31021400  0.68978600  0.49794400  1
  O  O24  1  0.81021400  0.81021400  0.99794400  1
  O  O25  1  0.00828500  0.68698800  0.49404700  1
  O  O26  1  0.50828500  0.81301200  0.99404700  1
  O  O27  1  0.00000000  0.00000000  0.56419200  1
  O  O28  1  0.68698800  0.00828500  0.49404700  1
  O  O29  1  0.49171500  0.18698800  0.99404700  1
