# generated using pymatgen
data_SiO2
_symmetry_space_group_name_H-M   'P 1'
_cell_length_a   9.06242100
_cell_length_b   9.06242100
_cell_length_c   8.14422800
_cell_angle_alpha   90.00000000
_cell_angle_beta   90.00000000
_cell_angle_gamma   90.00000000
_symmetry_Int_Tables_number   1
_chemical_formula_structural   SiO2
_chemical_formula_sum   'Si16 O32'
_cell_volume   668.86487642
_cell_formula_units_Z   16
loop_
 _symmetry_equiv_pos_site_id
 _symmetry_equiv_pos_as_xyz
  1  'x, y, z'
loop_
 _atom_site_type_symbol
 _atom_site_label
 _atom_site_symmetry_multiplicity
 _atom_site_fract_x
 _atom_site_fract_y
 _atom_site_fract_z
 _atom_site_occupancy
  Si  Si0  1  0.55539900  0.28246100  0.43718300  1
  Si  Si1  1  0.28246100  0.55539900  0.93718300  1
  Si  Si2  1  0.55539900  0.71753900  0.06281700  1
  Si  Si3  1  0.71753900  0.55539900  0.56281700  1
  Si  Si4  1  0.94460100  0.78246100  0.43718300  1
  Si  Si5  1  0.28246100  0.44460100  0.56281700  1
  Si  Si6  1  0.21753900  0.05539900  0.93718300  1
  Si  Si7  1  0.05539900  0.78246100  0.06281700  1
  Si  Si8  1  0.44460100  0.71753900  0.43718300  1
  Si  Si9  1  0.21753900  0.94460100  0.56281700  1
  Si  Si10  1  0.05539900  0.21753900  0.43718300  1
  Si  Si11  1  0.78246100  0.05539900  0.56281700  1
  Si  Si12  1  0.71753900  0.44460100  0.93718300  1
  Si  Si13  1  0.44460100  0.28246100  0.06281700  1
  Si  Si14  1  0.94460100  0.21753900  0.06281700  1
  Si  Si15  1  0.78246100  0.94460100  0.93718300  1
  O  O16  1  0.37020000  0.87020000  0.50000000  1
  O  O17  1  0.91606000  0.82320500  0.94403400  1
  O  O18  1  0.32320500  0.58394000  0.44403400  1
  O  O19  1  0.87020000  0.62980000  0.50000000  1
  O  O20  1  0.26120100  0.50000000  0.75000000  1
  O  O21  1  0.67679500  0.41606000  0.44403400  1
  O  O22  1  0.73879900  0.50000000  0.75000000  1
  O  O23  1  0.91606000  0.17679500  0.55596600  1
  O  O24  1  0.37020000  0.12980000  0.00000000  1
  O  O25  1  0.08394000  0.17679500  0.94403400  1
  O  O26  1  0.58394000  0.32320500  0.94403400  1
  O  O27  1  0.41606000  0.67679500  0.94403400  1
  O  O28  1  0.87020000  0.37020000  0.00000000  1
  O  O29  1  0.58394000  0.67679500  0.55596600  1
  O  O30  1  0.67679500  0.58394000  0.05596600  1
  O  O31  1  0.41606000  0.32320500  0.55596600  1
  O  O32  1  0.50000000  0.73879900  0.25000000  1
  O  O33  1  0.62980000  0.12980000  0.50000000  1
  O  O34  1  0.32320500  0.41606000  0.05596600  1
  O  O35  1  0.08394000  0.82320500  0.55596600  1
  O  O36  1  0.82320500  0.91606000  0.44403400  1
  O  O37  1  0.00000000  0.23879900  0.25000000  1
  O  O38  1  0.17679500  0.08394000  0.44403400  1
  O  O39  1  0.00000000  0.76120100  0.25000000  1
  O  O40  1  0.50000000  0.26120100  0.25000000  1
  O  O41  1  0.17679500  0.91606000  0.05596600  1
  O  O42  1  0.23879900  0.00000000  0.75000000  1
  O  O43  1  0.82320500  0.08394000  0.05596600  1
  O  O44  1  0.76120100  0.00000000  0.75000000  1
  O  O45  1  0.12980000  0.62980000  0.00000000  1
  O  O46  1  0.62980000  0.87020000  0.00000000  1
  O  O47  1  0.12980000  0.37020000  0.50000000  1
