# generated using pymatgen
data_SiO2
_symmetry_space_group_name_H-M   'P 1'
_cell_length_a   19.72797100
_cell_length_b   7.48264700
_cell_length_c   9.80114706
_cell_angle_alpha   81.33896768
_cell_angle_beta   90.00000000
_cell_angle_gamma   90.00000000
_symmetry_Int_Tables_number   1
_chemical_formula_structural   SiO2
_chemical_formula_sum   'Si24 O48'
_cell_volume   1430.32150004
_cell_formula_units_Z   24
loop_
 _symmetry_equiv_pos_site_id
 _symmetry_equiv_pos_as_xyz
  1  'x, y, z'
loop_
 _atom_site_type_symbol
 _atom_site_label
 _atom_site_symmetry_multiplicity
 _atom_site_fract_x
 _atom_site_fract_y
 _atom_site_fract_z
 _atom_site_occupancy
  Si  Si0  1  0.67083200  0.46474800  0.88444600  1
  Si  Si1  1  0.55765300  0.69167800  0.34554400  1
  Si  Si2  1  0.10733600  0.92214500  0.02492500  1
  Si  Si3  1  0.05507900  0.40735700  0.33031600  1
  Si  Si4  1  0.05765300  0.30832200  0.65445600  1
  Si  Si5  1  0.82891600  0.70884500  0.12014900  1
  Si  Si6  1  0.44492100  0.40735700  0.33031600  1
  Si  Si7  1  0.00188800  0.93878700  0.78448600  1
  Si  Si8  1  0.55507900  0.59264300  0.66968400  1
  Si  Si9  1  0.17083200  0.53525200  0.11555400  1
  Si  Si10  1  0.39266400  0.92214500  0.02492500  1
  Si  Si11  1  0.89266400  0.07785500  0.97507400  1
  Si  Si12  1  0.17108400  0.29115500  0.87985100  1
  Si  Si13  1  0.49811200  0.93878700  0.78448600  1
  Si  Si14  1  0.60733600  0.07785500  0.97507400  1
  Si  Si15  1  0.94492100  0.59264300  0.66968400  1
  Si  Si16  1  0.44234700  0.30832200  0.65445600  1
  Si  Si17  1  0.99811200  0.06121300  0.21551400  1
  Si  Si18  1  0.67108400  0.70884500  0.12014900  1
  Si  Si19  1  0.32916800  0.53525200  0.11555400  1
  Si  Si20  1  0.50188800  0.06121300  0.21551400  1
  Si  Si21  1  0.94234700  0.69167800  0.34554400  1
  Si  Si22  1  0.82916800  0.46474800  0.88444600  1
  Si  Si23  1  0.32891600  0.29115500  0.87985100  1
  O  O24  1  0.00524100  0.58080900  0.28995800  1
  O  O25  1  0.75000000  0.69584000  0.16650800  1
  O  O26  1  0.87479900  0.55745200  0.75528100  1
  O  O27  1  0.55372400  0.13141100  0.08905400  1
  O  O28  1  0.75000000  0.49241600  0.84048600  1
  O  O29  1  0.15486300  0.74981000  0.07874200  1
  O  O30  1  0.37461300  0.33846400  0.74181600  1
  O  O31  1  0.34434200  0.08756600  0.95739100  1
  O  O32  1  0.99475900  0.41919100  0.71004200  1
  O  O33  1  0.51685600  0.77196500  0.70464300  1
  O  O34  1  0.87461300  0.66153600  0.25818400  1
  O  O35  1  0.06682400  0.98131900  0.15556600  1
  O  O36  1  0.93317600  0.01868100  0.84443400  1
  O  O37  1  0.96195300  0.90557100  0.32561200  1
  O  O38  1  0.07317100  0.38133900  0.49359700  1
  O  O39  1  0.44627600  0.86858900  0.91094600  1
  O  O40  1  0.92682900  0.61866100  0.50640300  1
  O  O41  1  0.84513700  0.25019000  0.92125800  1
  O  O42  1  0.56682400  0.01868100  0.84443400  1
  O  O43  1  0.49475900  0.58080900  0.28995800  1
  O  O44  1  0.15423100  0.43825900  0.98148400  1
  O  O45  1  0.42682900  0.38133900  0.49359700  1
  O  O46  1  0.37479900  0.44254800  0.24471900  1
  O  O47  1  0.62520100  0.55745200  0.75528100  1
  O  O48  1  0.65423100  0.56174100  0.01851600  1
  O  O49  1  0.03804700  0.09442900  0.67438800  1
  O  O50  1  0.43317600  0.98131900  0.15556600  1
  O  O51  1  0.65486300  0.25019000  0.92125800  1
  O  O52  1  0.57317100  0.61866100  0.50640300  1
  O  O53  1  0.34576900  0.43825900  0.98148400  1
  O  O54  1  0.12520100  0.44254800  0.24471900  1
  O  O55  1  0.53804700  0.90557100  0.32561200  1
  O  O56  1  0.48314400  0.22803500  0.29535700  1
  O  O57  1  0.98314400  0.77196500  0.70464300  1
  O  O58  1  0.62538700  0.66153600  0.25818400  1
  O  O59  1  0.84576900  0.56174100  0.01851600  1
  O  O60  1  0.50524100  0.41919100  0.71004200  1
  O  O61  1  0.34513700  0.74981000  0.07874200  1
  O  O62  1  0.12538700  0.33846400  0.74181600  1
  O  O63  1  0.05372400  0.86858900  0.91094600  1
  O  O64  1  0.46195300  0.09442900  0.67438800  1
  O  O65  1  0.25000000  0.50758400  0.15951400  1
  O  O66  1  0.15565800  0.08756600  0.95739100  1
  O  O67  1  0.65565800  0.91243400  0.04260900  1
  O  O68  1  0.94627600  0.13141100  0.08905400  1
  O  O69  1  0.25000000  0.30416000  0.83349200  1
  O  O70  1  0.01685600  0.22803500  0.29535700  1
  O  O71  1  0.84434200  0.91243400  0.04260900  1
