# generated using pymatgen
data_Hg3AsS4Cl
_symmetry_space_group_name_H-M   'P 1'
_cell_length_a   7.58965162
_cell_length_b   7.58965162
_cell_length_c   9.67490700
_cell_angle_alpha   90.00000000
_cell_angle_beta   90.00000000
_cell_angle_gamma   119.99999669
_symmetry_Int_Tables_number   1
_chemical_formula_structural   Hg3AsS4Cl
_chemical_formula_sum   'Hg6 As2 S8 Cl2'
_cell_volume   482.63757261
_cell_formula_units_Z   2
loop_
 _symmetry_equiv_pos_site_id
 _symmetry_equiv_pos_as_xyz
  1  'x, y, z'
loop_
 _atom_site_type_symbol
 _atom_site_label
 _atom_site_symmetry_multiplicity
 _atom_site_fract_x
 _atom_site_fract_y
 _atom_site_fract_z
 _atom_site_occupancy
  Hg  Hg0  1  0.50218900  0.49781100  0.74346200  1
  Hg  Hg1  1  0.49781100  0.50218900  0.24346200  1
  Hg  Hg2  1  0.49781100  0.99562300  0.24346200  1
  Hg  Hg3  1  0.00437700  0.50218900  0.24346200  1
  Hg  Hg4  1  0.99562300  0.49781100  0.74346200  1
  Hg  Hg5  1  0.50218900  0.00437700  0.74346200  1
  As  As6  1  0.00000000  0.00000000  0.73020300  1
  As  As7  1  0.00000000  0.00000000  0.23020300  1
  S  S8  1  0.66666700  0.33333300  0.61475200  1
  S  S9  1  0.85143000  0.70286100  0.35680300  1
  S  S10  1  0.70286100  0.85143000  0.85680300  1
  S  S11  1  0.85143000  0.14857000  0.35680300  1
  S  S12  1  0.14857000  0.29713900  0.85680300  1
  S  S13  1  0.33333300  0.66666700  0.11475200  1
  S  S14  1  0.29713900  0.14857000  0.35680300  1
  S  S15  1  0.14857000  0.85143000  0.85680300  1
  Cl  Cl16  1  0.33333300  0.66666700  0.54155000  1
  Cl  Cl17  1  0.66666700  0.33333300  0.04155000  1
