# generated using pymatgen
data_K9Bi5O13
_symmetry_space_group_name_H-M   'P 1'
_cell_length_a   5.82338700
_cell_length_b   15.37680200
_cell_length_c   27.33690121
_cell_angle_alpha   68.96892611
_cell_angle_beta   90.00000000
_cell_angle_gamma   90.00000000
_symmetry_Int_Tables_number   1
_chemical_formula_structural   K9Bi5O13
_chemical_formula_sum   'K36 Bi20 O52'
_cell_volume   2284.82114229
_cell_formula_units_Z   4
loop_
 _symmetry_equiv_pos_site_id
 _symmetry_equiv_pos_as_xyz
  1  'x, y, z'
loop_
 _atom_site_type_symbol
 _atom_site_label
 _atom_site_symmetry_multiplicity
 _atom_site_fract_x
 _atom_site_fract_y
 _atom_site_fract_z
 _atom_site_occupancy
  K  K0  1  0.75938400  0.52549700  0.80040600  1
  K  K1  1  0.24061600  0.47450300  0.19959400  1
  K  K2  1  0.26389900  0.12234200  0.80225700  1
  K  K3  1  0.76389900  0.87765800  0.69774300  1
  K  K4  1  0.76853300  0.44114300  0.11421000  1
  K  K5  1  0.24936600  0.76769800  0.41884900  1
  K  K6  1  0.73146700  0.44114300  0.61421000  1
  K  K7  1  0.74503900  0.35792500  0.93950300  1
  K  K8  1  0.31361000  0.82872800  0.60017000  1
  K  K9  1  0.75587300  0.80592600  0.99740200  1
  K  K10  1  0.25044000  0.70229300  0.74043300  1
  K  K11  1  0.74956000  0.29770700  0.25956700  1
  K  K12  1  0.18639000  0.82872800  0.10017000  1
  K  K13  1  0.75422200  0.08865500  0.21830400  1
  K  K14  1  0.25496100  0.64207500  0.06049700  1
  K  K15  1  0.74936600  0.23230200  0.08115100  1
  K  K16  1  0.68639000  0.17127200  0.39983000  1
  K  K17  1  0.74412700  0.80592600  0.49740200  1
  K  K18  1  0.25422200  0.91134500  0.28169600  1
  K  K19  1  0.24503900  0.64207500  0.56049700  1
  K  K20  1  0.24412700  0.19407400  0.00259800  1
  K  K21  1  0.23146700  0.55885700  0.88579000  1
  K  K22  1  0.26853300  0.55885700  0.38579000  1
  K  K23  1  0.23610100  0.12234200  0.30225700  1
  K  K24  1  0.25938400  0.47450300  0.69959400  1
  K  K25  1  0.75063400  0.23230200  0.58115100  1
  K  K26  1  0.25587300  0.19407400  0.50259800  1
  K  K27  1  0.75496100  0.35792500  0.43950300  1
  K  K28  1  0.75044000  0.29770700  0.75956700  1
  K  K29  1  0.25063400  0.76769800  0.91884900  1
  K  K30  1  0.81361000  0.17127200  0.89983000  1
  K  K31  1  0.74577800  0.08865500  0.71830400  1
  K  K32  1  0.73610100  0.87765800  0.19774300  1
  K  K33  1  0.74061600  0.52549700  0.30040600  1
  K  K34  1  0.24577800  0.91134500  0.78169600  1
  K  K35  1  0.24956000  0.70229300  0.24043300  1
  Bi  Bi36  1  0.77892800  0.57709300  0.46881500  1
  Bi  Bi37  1  0.79717800  0.63673700  0.66267100  1
  Bi  Bi38  1  0.24273500  0.26125500  0.16120700  1
  Bi  Bi39  1  0.73850900  0.96062500  0.86459900  1
  Bi  Bi40  1  0.20282200  0.36326300  0.33732900  1
  Bi  Bi41  1  0.76149100  0.96062500  0.36459900  1
  Bi  Bi42  1  0.72107200  0.57709300  0.96881500  1
  Bi  Bi43  1  0.20132200  0.97515000  0.45871400  1
  Bi  Bi44  1  0.25726500  0.26125500  0.66120700  1
  Bi  Bi45  1  0.70132200  0.02485000  0.04128600  1
  Bi  Bi46  1  0.79867800  0.02485000  0.54128600  1
  Bi  Bi47  1  0.29717800  0.36326300  0.83732900  1
  Bi  Bi48  1  0.29867800  0.97515000  0.95871400  1
  Bi  Bi49  1  0.26149100  0.03937500  0.13540100  1
  Bi  Bi50  1  0.23850900  0.03937500  0.63540100  1
  Bi  Bi51  1  0.74273500  0.73874500  0.33879300  1
  Bi  Bi52  1  0.75726500  0.73874500  0.83879300  1
  Bi  Bi53  1  0.27892800  0.42290700  0.03118500  1
  Bi  Bi54  1  0.70282200  0.63673700  0.16267100  1
  Bi  Bi55  1  0.22107200  0.42290700  0.53118500  1
  O  O56  1  0.26895300  0.10272100  0.19689200  1
  O  O57  1  0.74433600  0.49629200  0.69905500  1
  O  O58  1  0.29954400  0.29961000  0.28649800  1
  O  O59  1  0.76952800  0.55646600  0.39708300  1
  O  O60  1  0.75566400  0.49629200  0.19905500  1
  O  O61  1  0.66135600  0.68170100  0.58916300  1
  O  O62  1  0.37553400  0.95701400  0.87662700  1
  O  O63  1  0.83864400  0.68170100  0.08916300  1
  O  O64  1  0.83685400  0.99149700  0.46225100  1
  O  O65  1  0.35703000  0.65756400  0.15394100  1
  O  O66  1  0.26418000  0.90010300  0.68485200  1
  O  O67  1  0.23582000  0.90010300  0.18485200  1
  O  O68  1  0.74334800  0.73644500  0.91752900  1
  O  O69  1  0.25665200  0.26355500  0.08247100  1
  O  O70  1  0.14297000  0.65756400  0.65394100  1
  O  O71  1  0.20045600  0.29961000  0.78649800  1
  O  O72  1  0.76296100  0.16650600  0.50059500  1
  O  O73  1  0.76895300  0.89727900  0.30310800  1
  O  O74  1  0.24433600  0.50370800  0.80094500  1
  O  O75  1  0.79954400  0.70039000  0.21350200  1
  O  O76  1  0.39194500  0.73415100  0.32959100  1
  O  O77  1  0.62446600  0.04298600  0.12337300  1
  O  O78  1  0.73703900  0.16650600  0.00059500  1
  O  O79  1  0.63910300  0.41570400  0.02110000  1
  O  O80  1  0.26296100  0.83349400  0.99940500  1
  O  O81  1  0.70045600  0.70039000  0.71350200  1
  O  O82  1  0.10805500  0.73415100  0.82959100  1
  O  O83  1  0.64297000  0.34243600  0.84605900  1
  O  O84  1  0.16314600  0.00850300  0.53774900  1
  O  O85  1  0.16135600  0.31829900  0.91083700  1
  O  O86  1  0.85703000  0.34243600  0.34605900  1
  O  O87  1  0.33864400  0.31829900  0.41083700  1
  O  O88  1  0.76418000  0.09989700  0.81514800  1
  O  O89  1  0.24334800  0.26355500  0.58247100  1
  O  O90  1  0.73582000  0.09989700  0.31514800  1
  O  O91  1  0.33685400  0.00850300  0.03774900  1
  O  O92  1  0.12446600  0.95701400  0.37662700  1
  O  O93  1  0.89194500  0.26584900  0.17040900  1
  O  O94  1  0.86089700  0.41570400  0.52110000  1
  O  O95  1  0.73047200  0.55646600  0.89708300  1
  O  O96  1  0.75665200  0.73644500  0.41752900  1
  O  O97  1  0.87553400  0.04298600  0.62337300  1
  O  O98  1  0.23047200  0.44353400  0.60291700  1
  O  O99  1  0.23104700  0.10272100  0.69689200  1
  O  O100  1  0.36089700  0.58429600  0.97890000  1
  O  O101  1  0.25566400  0.50370800  0.30094500  1
  O  O102  1  0.23703900  0.83349400  0.49940500  1
  O  O103  1  0.26952800  0.44353400  0.10291700  1
  O  O104  1  0.13910300  0.58429600  0.47890000  1
  O  O105  1  0.60805500  0.26584900  0.67040900  1
  O  O106  1  0.66314600  0.99149700  0.96225100  1
  O  O107  1  0.73104700  0.89727900  0.80310800  1
