# generated using pymatgen
data_K2LaNb5O15
_symmetry_space_group_name_H-M   'P 1'
_cell_length_a   12.80775000
_cell_length_b   12.80775000
_cell_length_c   3.97715700
_cell_angle_alpha   90.00000000
_cell_angle_beta   90.00000000
_cell_angle_gamma   90.00000000
_symmetry_Int_Tables_number   1
_chemical_formula_structural   K2LaNb5O15
_chemical_formula_sum   'K4 La2 Nb10 O30'
_cell_volume   652.40670971
_cell_formula_units_Z   2
loop_
 _symmetry_equiv_pos_site_id
 _symmetry_equiv_pos_as_xyz
  1  'x, y, z'
loop_
 _atom_site_type_symbol
 _atom_site_label
 _atom_site_symmetry_multiplicity
 _atom_site_fract_x
 _atom_site_fract_y
 _atom_site_fract_z
 _atom_site_occupancy
  K  K0  1  0.67111800  0.17111800  0.50000000  1
  K  K1  1  0.32888200  0.82888200  0.50000000  1
  K  K2  1  0.82888200  0.67111800  0.50000000  1
  K  K3  1  0.17111800  0.32888200  0.50000000  1
  La  La4  1  0.50000000  0.50000000  0.50000000  1
  La  La5  1  0.00000000  0.00000000  0.50000000  1
  Nb  Nb6  1  0.71404300  0.42432800  0.00000000  1
  Nb  Nb7  1  0.42432800  0.28595700  0.00000000  1
  Nb  Nb8  1  0.00000000  0.50000000  0.00000000  1
  Nb  Nb9  1  0.57567200  0.71404300  0.00000000  1
  Nb  Nb10  1  0.78595700  0.92432800  0.00000000  1
  Nb  Nb11  1  0.21404300  0.07567200  0.00000000  1
  Nb  Nb12  1  0.92432800  0.21404300  0.00000000  1
  Nb  Nb13  1  0.28595700  0.57567200  0.00000000  1
  Nb  Nb14  1  0.07567200  0.78595700  0.00000000  1
  Nb  Nb15  1  0.50000000  0.00000000  0.00000000  1
  O  O16  1  0.63277500  0.56104200  0.00000000  1
  O  O17  1  0.86722500  0.06104200  0.00000000  1
  O  O18  1  0.42317100  0.30713100  0.50000000  1
  O  O19  1  0.56104200  0.36722500  0.00000000  1
  O  O20  1  0.21508100  0.71508100  0.00000000  1
  O  O21  1  0.50160200  0.15711200  0.00000000  1
  O  O22  1  0.15711200  0.49839800  0.00000000  1
  O  O23  1  0.65711200  0.00160200  0.00000000  1
  O  O24  1  0.28491900  0.21508100  0.00000000  1
  O  O25  1  0.84288800  0.50160200  0.00000000  1
  O  O26  1  0.34288800  0.99839800  0.00000000  1
  O  O27  1  0.13277500  0.93895800  0.00000000  1
  O  O28  1  0.36722500  0.43895800  0.00000000  1
  O  O29  1  0.19286900  0.07682900  0.50000000  1
  O  O30  1  0.71508100  0.78491900  0.00000000  1
  O  O31  1  0.99839800  0.65711200  0.00000000  1
  O  O32  1  0.57682900  0.69286900  0.50000000  1
  O  O33  1  0.69286900  0.42317100  0.50000000  1
  O  O34  1  0.00000000  0.50000000  0.50000000  1
  O  O35  1  0.06104200  0.13277500  0.00000000  1
  O  O36  1  0.07682900  0.80713100  0.50000000  1
  O  O37  1  0.92317100  0.19286900  0.50000000  1
  O  O38  1  0.30713100  0.57682900  0.50000000  1
  O  O39  1  0.43895800  0.63277500  0.00000000  1
  O  O40  1  0.00160200  0.34288800  0.00000000  1
  O  O41  1  0.78491900  0.28491900  0.00000000  1
  O  O42  1  0.80713100  0.92317100  0.50000000  1
  O  O43  1  0.93895800  0.86722500  0.00000000  1
  O  O44  1  0.50000000  0.00000000  0.50000000  1
  O  O45  1  0.49839800  0.84288800  0.00000000  1
