# generated using pymatgen
data_Cu4Bi4S9
_symmetry_space_group_name_H-M   'P 1'
_cell_length_a   3.94921400
_cell_length_b   11.64421800
_cell_length_c   31.96578900
_cell_angle_alpha   90.00000000
_cell_angle_beta   90.00000000
_cell_angle_gamma   90.00000000
_symmetry_Int_Tables_number   1
_chemical_formula_structural   Cu4Bi4S9
_chemical_formula_sum   'Cu16 Bi16 S36'
_cell_volume   1469.96306959
_cell_formula_units_Z   4
loop_
 _symmetry_equiv_pos_site_id
 _symmetry_equiv_pos_as_xyz
  1  'x, y, z'
loop_
 _atom_site_type_symbol
 _atom_site_label
 _atom_site_symmetry_multiplicity
 _atom_site_fract_x
 _atom_site_fract_y
 _atom_site_fract_z
 _atom_site_occupancy
  Cu  Cu0  1  0.25000000  0.42674000  0.30451200  1
  Cu  Cu1  1  0.75000000  0.83638100  0.30676100  1
  Cu  Cu2  1  0.25000000  0.07326000  0.80451200  1
  Cu  Cu3  1  0.75000000  0.90564000  0.01612200  1
  Cu  Cu4  1  0.25000000  0.16361900  0.69323900  1
  Cu  Cu5  1  0.25000000  0.88173600  0.36418200  1
  Cu  Cu6  1  0.75000000  0.59436000  0.51612200  1
  Cu  Cu7  1  0.25000000  0.09436000  0.98387800  1
  Cu  Cu8  1  0.75000000  0.66361900  0.80676100  1
  Cu  Cu9  1  0.75000000  0.92674000  0.19548800  1
  Cu  Cu10  1  0.75000000  0.38173600  0.13581800  1
  Cu  Cu11  1  0.75000000  0.11826400  0.63581800  1
  Cu  Cu12  1  0.25000000  0.33638100  0.19323900  1
  Cu  Cu13  1  0.75000000  0.57326000  0.69548800  1
  Cu  Cu14  1  0.25000000  0.40564100  0.48387800  1
  Cu  Cu15  1  0.25000000  0.61826400  0.86418200  1
  Bi  Bi16  1  0.25000000  0.35638800  0.77928800  1
  Bi  Bi17  1  0.75000000  0.22862100  0.39174100  1
  Bi  Bi18  1  0.75000000  0.64361200  0.22071200  1
  Bi  Bi19  1  0.25000000  0.14361200  0.27928800  1
  Bi  Bi20  1  0.25000000  0.09666200  0.08922800  1
  Bi  Bi21  1  0.75000000  0.13041800  0.52832700  1
  Bi  Bi22  1  0.25000000  0.40333800  0.58922800  1
  Bi  Bi23  1  0.25000000  0.72862100  0.10825900  1
  Bi  Bi24  1  0.75000000  0.59666200  0.41077200  1
  Bi  Bi25  1  0.75000000  0.85638800  0.72071200  1
  Bi  Bi26  1  0.75000000  0.90333800  0.91077200  1
  Bi  Bi27  1  0.75000000  0.36958200  0.02832700  1
  Bi  Bi28  1  0.25000000  0.77137900  0.60825900  1
  Bi  Bi29  1  0.75000000  0.27137900  0.89174100  1
  Bi  Bi30  1  0.25000000  0.86958200  0.47167300  1
  Bi  Bi31  1  0.25000000  0.63041800  0.97167300  1
  S  S32  1  0.25000000  0.01280400  0.73646300  1
  S  S33  1  0.75000000  0.31934100  0.31560900  1
  S  S34  1  0.25000000  0.07582800  0.35721100  1
  S  S35  1  0.25000000  0.32685100  0.09754600  1
  S  S36  1  0.25000000  0.42417200  0.85721100  1
  S  S37  1  0.25000000  0.87020700  0.97960600  1
  S  S38  1  0.75000000  0.88813500  0.08664700  1
  S  S39  1  0.25000000  0.11656200  0.46977700  1
  S  S40  1  0.75000000  0.18065900  0.81560900  1
  S  S41  1  0.25000000  0.38343800  0.96977700  1
  S  S42  1  0.75000000  0.92417200  0.64278900  1
  S  S43  1  0.75000000  0.61656200  0.03022300  1
  S  S44  1  0.25000000  0.38813500  0.41335300  1
  S  S45  1  0.75000000  0.57582800  0.14278900  1
  S  S46  1  0.75000000  0.51280400  0.76353700  1
  S  S47  1  0.25000000  0.75604700  0.81016400  1
  S  S48  1  0.75000000  0.37020700  0.52039400  1
  S  S49  1  0.75000000  0.08934700  0.15331400  1
  S  S50  1  0.25000000  0.91065300  0.84668600  1
  S  S51  1  0.75000000  0.25604700  0.68983600  1
  S  S52  1  0.75000000  0.88343800  0.53022300  1
  S  S53  1  0.75000000  0.24395300  0.18983600  1
  S  S54  1  0.75000000  0.61186500  0.58664700  1
  S  S55  1  0.75000000  0.67314900  0.90245400  1
  S  S56  1  0.25000000  0.58934700  0.34668600  1
  S  S57  1  0.75000000  0.98719600  0.26353700  1
  S  S58  1  0.25000000  0.74395300  0.31016400  1
  S  S59  1  0.25000000  0.11186500  0.91335300  1
  S  S60  1  0.25000000  0.81934100  0.18439100  1
  S  S61  1  0.25000000  0.68065900  0.68439100  1
  S  S62  1  0.25000000  0.62979300  0.47960600  1
  S  S63  1  0.25000000  0.48719600  0.23646300  1
  S  S64  1  0.75000000  0.82685100  0.40245400  1
  S  S65  1  0.25000000  0.17314900  0.59754600  1
  S  S66  1  0.75000000  0.12979300  0.02039400  1
  S  S67  1  0.75000000  0.41065300  0.65331400  1
