# generated using pymatgen
data_SrCa(CO3)2
_symmetry_space_group_name_H-M   'P 1'
_cell_length_a   5.31334800
_cell_length_b   6.47241100
_cell_length_c   7.44243100
_cell_angle_alpha   90.00000000
_cell_angle_beta   90.00000000
_cell_angle_gamma   90.00000000
_symmetry_Int_Tables_number   1
_chemical_formula_structural   SrCa(CO3)2
_chemical_formula_sum   'Sr2 Ca2 C4 O12'
_cell_volume   255.94648250
_cell_formula_units_Z   2
loop_
 _symmetry_equiv_pos_site_id
 _symmetry_equiv_pos_as_xyz
  1  'x, y, z'
loop_
 _atom_site_type_symbol
 _atom_site_label
 _atom_site_symmetry_multiplicity
 _atom_site_fract_x
 _atom_site_fract_y
 _atom_site_fract_z
 _atom_site_occupancy
  Sr  Sr0  1  0.00000000  0.11180000  0.25364700  1
  Sr  Sr1  1  0.00000000  0.88820000  0.75364700  1
  Ca  Ca2  1  0.50000000  0.47910700  0.55042300  1
  Ca  Ca3  1  0.50000000  0.52089300  0.05042300  1
  C  C4  1  0.50000000  0.96398000  0.07675100  1
  C  C5  1  0.50000000  0.03602000  0.57675100  1
  C  C6  1  0.00000000  0.58770000  0.33832400  1
  C  C7  1  0.00000000  0.41230000  0.83832400  1
  O  O8  1  0.78938200  0.49336900  0.29689300  1
  O  O9  1  0.28912900  0.86534300  0.05024300  1
  O  O10  1  0.78938200  0.50663100  0.79689300  1
  O  O11  1  0.21061800  0.49336900  0.29689300  1
  O  O12  1  0.00000000  0.75868400  0.42282500  1
  O  O13  1  0.71087100  0.86534300  0.05024300  1
  O  O14  1  0.71087100  0.13465700  0.55024300  1
  O  O15  1  0.50000000  0.15106500  0.13775700  1
  O  O16  1  0.21061800  0.50663100  0.79689300  1
  O  O17  1  0.00000000  0.24131600  0.92282500  1
  O  O18  1  0.50000000  0.84893500  0.63775700  1
  O  O19  1  0.28912900  0.13465700  0.55024300  1
