# generated using pymatgen
data_KB3O5
_symmetry_space_group_name_H-M   'P 1'
_cell_length_a   6.73366900
_cell_length_b   9.42914300
_cell_length_c   21.44403326
_cell_angle_alpha   85.42966565
_cell_angle_beta   90.00000000
_cell_angle_gamma   90.00000000
_symmetry_Int_Tables_number   1
_chemical_formula_structural   KB3O5
_chemical_formula_sum   'K12 B36 O60'
_cell_volume   1357.21083754
_cell_formula_units_Z   12
loop_
 _symmetry_equiv_pos_site_id
 _symmetry_equiv_pos_as_xyz
  1  'x, y, z'
loop_
 _atom_site_type_symbol
 _atom_site_label
 _atom_site_symmetry_multiplicity
 _atom_site_fract_x
 _atom_site_fract_y
 _atom_site_fract_z
 _atom_site_occupancy
  K  K0  1  0.80056700  0.23836100  0.96365400  1
  K  K1  1  0.18690300  0.59821200  0.88166300  1
  K  K2  1  0.81309700  0.40178800  0.11833700  1
  K  K3  1  0.69943300  0.23836100  0.46365400  1
  K  K4  1  0.30056700  0.76163900  0.53634600  1
  K  K5  1  0.04653500  0.06449900  0.73742000  1
  K  K6  1  0.54653500  0.93550100  0.76258000  1
  K  K7  1  0.68690300  0.40178800  0.61833700  1
  K  K8  1  0.19943300  0.76163900  0.03634600  1
  K  K9  1  0.95346500  0.93550100  0.26258000  1
  K  K10  1  0.31309700  0.59821200  0.38166300  1
  K  K11  1  0.45346500  0.06449900  0.23742000  1
  B  B12  1  0.75090600  0.67299100  0.46242900  1
  B  B13  1  0.42122300  0.20828400  0.83282700  1
  B  B14  1  0.98122700  0.58758000  0.27743400  1
  B  B15  1  0.28864300  0.48064200  0.12901000  1
  B  B16  1  0.49304100  0.14151800  0.07976500  1
  B  B17  1  0.29767200  0.02182900  0.38737400  1
  B  B18  1  0.36081500  0.10279500  0.60039300  1
  B  B19  1  0.79767200  0.97817100  0.11262600  1
  B  B20  1  0.13918500  0.10279500  0.10039300  1
  B  B21  1  0.63918500  0.89720500  0.39960700  1
  B  B22  1  0.79690900  0.35797200  0.28437100  1
  B  B23  1  0.01877300  0.41242000  0.72256600  1
  B  B24  1  0.29690900  0.64202800  0.21562900  1
  B  B25  1  0.70309100  0.35797200  0.78437100  1
  B  B26  1  0.20232800  0.02182900  0.88737400  1
  B  B27  1  0.51877300  0.58758000  0.77743400  1
  B  B28  1  0.21135700  0.48064200  0.62901000  1
  B  B29  1  0.74909400  0.67299100  0.96242900  1
  B  B30  1  0.50695900  0.85848200  0.92023500  1
  B  B31  1  0.57877700  0.79171600  0.16717300  1
  B  B32  1  0.00695900  0.14151800  0.57976500  1
  B  B33  1  0.71135700  0.51935800  0.87099000  1
  B  B34  1  0.92122300  0.79171600  0.66717300  1
  B  B35  1  0.25750400  0.25997900  0.92910400  1
  B  B36  1  0.78864300  0.51935800  0.37099000  1
  B  B37  1  0.24249600  0.25997900  0.42910400  1
  B  B38  1  0.48122700  0.41242000  0.22256600  1
  B  B39  1  0.70232800  0.97817100  0.61262600  1
  B  B40  1  0.20309100  0.64202800  0.71562900  1
  B  B41  1  0.75750400  0.74002100  0.57089600  1
  B  B42  1  0.86081500  0.89720500  0.89960700  1
  B  B43  1  0.99304100  0.85848200  0.42023500  1
  B  B44  1  0.74249600  0.74002100  0.07089600  1
  B  B45  1  0.24909400  0.32700900  0.53757100  1
  B  B46  1  0.25090600  0.32700900  0.03757100  1
  B  B47  1  0.07877700  0.20828400  0.33282600  1
  O  O48  1  0.66068500  0.94151300  0.89195100  1
  O  O49  1  0.91274000  0.47346000  0.24926900  1
  O  O50  1  0.49942300  0.01734100  0.63127400  1
  O  O51  1  0.27242500  0.60199500  0.65413800  1
  O  O52  1  0.41274000  0.52654000  0.25073100  1
  O  O53  1  0.76681700  0.54011900  0.93095000  1
  O  O54  1  0.23318300  0.45988100  0.06905000  1
  O  O55  1  0.59573000  0.62067700  0.83578900  1
  O  O56  1  0.37214200  0.67906200  0.75506600  1
  O  O57  1  0.00057700  0.01734100  0.13127400  1
  O  O58  1  0.57301100  0.22990000  0.79146200  1
  O  O59  1  0.99942300  0.98265900  0.86872600  1
  O  O60  1  0.81532200  0.87539000  0.06404700  1
  O  O61  1  0.83931500  0.94151300  0.39195100  1
  O  O62  1  0.09573000  0.37932300  0.66421100  1
  O  O63  1  0.40427000  0.37932300  0.16421100  1
  O  O64  1  0.81143100  0.10545100  0.58686800  1
  O  O65  1  0.62186000  0.69571700  0.12216400  1
  O  O66  1  0.92698900  0.22990000  0.29146200  1
  O  O67  1  0.12785800  0.67906200  0.25506600  1
  O  O68  1  0.73318300  0.54011900  0.43095000  1
  O  O69  1  0.31143100  0.89454900  0.91313200  1
  O  O70  1  0.07301100  0.77010000  0.70853800  1
  O  O71  1  0.40404000  0.22675100  0.56585100  1
  O  O72  1  0.18467800  0.12461000  0.93595300  1
  O  O73  1  0.69472600  0.91220800  0.16931700  1
  O  O74  1  0.68856900  0.10545100  0.08686800  1
  O  O75  1  0.18856900  0.89454900  0.41313200  1
  O  O76  1  0.21233400  0.35992500  0.97019400  1
  O  O77  1  0.09596000  0.22675100  0.06585100  1
  O  O78  1  0.68467800  0.87539000  0.56404700  1
  O  O79  1  0.50057700  0.98265900  0.36872600  1
  O  O80  1  0.78766600  0.64007500  0.02980600  1
  O  O81  1  0.42698900  0.77010000  0.20853800  1
  O  O82  1  0.71233400  0.64007500  0.52980600  1
  O  O83  1  0.87814000  0.69571700  0.62216400  1
  O  O84  1  0.19472600  0.08779200  0.33068300  1
  O  O85  1  0.33931500  0.05848700  0.10804900  1
  O  O86  1  0.54744900  0.73591500  0.95641300  1
  O  O87  1  0.28766600  0.35992500  0.47019400  1
  O  O88  1  0.22757500  0.60199500  0.15413800  1
  O  O89  1  0.90427000  0.62067700  0.33578900  1
  O  O90  1  0.77242500  0.39800500  0.84586200  1
  O  O91  1  0.37814000  0.30428300  0.87783600  1
  O  O92  1  0.58726000  0.47346000  0.74926900  1
  O  O93  1  0.26681700  0.45988100  0.56905000  1
  O  O94  1  0.04744900  0.26408500  0.54358700  1
  O  O95  1  0.59596000  0.77324900  0.43414900  1
  O  O96  1  0.72757500  0.39800500  0.34586200  1
  O  O97  1  0.95255100  0.73591500  0.45641300  1
  O  O98  1  0.80527400  0.91220800  0.66931700  1
  O  O99  1  0.08726000  0.52654000  0.75073100  1
  O  O100  1  0.16068500  0.05848700  0.60804900  1
  O  O101  1  0.12186000  0.30428300  0.37783600  1
  O  O102  1  0.45255100  0.26408500  0.04358700  1
  O  O103  1  0.62785800  0.32093800  0.24493400  1
  O  O104  1  0.30527400  0.08779200  0.83068300  1
  O  O105  1  0.31532200  0.12461000  0.43595300  1
  O  O106  1  0.87214200  0.32093800  0.74493400  1
  O  O107  1  0.90404000  0.77324900  0.93414900  1
