# generated using pymatgen
data_CaZrAl9BO18
_symmetry_space_group_name_H-M   'P 1'
_cell_length_a   8.80807997
_cell_length_b   8.80807997
_cell_length_c   8.56269000
_cell_angle_alpha   90.00000000
_cell_angle_beta   90.00000000
_cell_angle_gamma   119.99999975
_symmetry_Int_Tables_number   1
_chemical_formula_structural   CaZrAl9BO18
_chemical_formula_sum   'Ca2 Zr2 Al18 B2 O36'
_cell_volume   575.31189274
_cell_formula_units_Z   2
loop_
 _symmetry_equiv_pos_site_id
 _symmetry_equiv_pos_as_xyz
  1  'x, y, z'
loop_
 _atom_site_type_symbol
 _atom_site_label
 _atom_site_symmetry_multiplicity
 _atom_site_fract_x
 _atom_site_fract_y
 _atom_site_fract_z
 _atom_site_occupancy
  Ca  Ca0  1  0.00000000  0.00000000  0.00000000  1
  Ca  Ca1  1  0.00000000  0.00000000  0.50000000  1
  Zr  Zr2  1  0.66666700  0.33333300  0.25000000  1
  Zr  Zr3  1  0.33333300  0.66666700  0.75000000  1
  Al  Al4  1  0.36057700  0.01764500  0.57768900  1
  Al  Al5  1  0.01764500  0.65706800  0.07768900  1
  Al  Al6  1  0.33678900  0.00428100  0.25000000  1
  Al  Al7  1  0.65706800  0.63942300  0.92231100  1
  Al  Al8  1  0.63942300  0.98235500  0.42231100  1
  Al  Al9  1  0.63942300  0.98235500  0.07768900  1
  Al  Al10  1  0.36057700  0.01764500  0.92231100  1
  Al  Al11  1  0.98235500  0.34293200  0.92231100  1
  Al  Al12  1  0.34293200  0.36057700  0.07768900  1
  Al  Al13  1  0.65706800  0.63942300  0.57768900  1
  Al  Al14  1  0.66749200  0.66321100  0.25000000  1
  Al  Al15  1  0.01764500  0.65706800  0.42231100  1
  Al  Al16  1  0.66321100  0.99571900  0.75000000  1
  Al  Al17  1  0.99571900  0.33250800  0.25000000  1
  Al  Al18  1  0.34293200  0.36057700  0.42231100  1
  Al  Al19  1  0.98235500  0.34293200  0.57768900  1
  Al  Al20  1  0.33250800  0.33678900  0.75000000  1
  Al  Al21  1  0.00428100  0.66749200  0.75000000  1
  B  B22  1  0.33333300  0.66666700  0.25000000  1
  B  B23  1  0.66666700  0.33333300  0.75000000  1
  O  O24  1  0.88981900  0.67041200  0.25000000  1
  O  O25  1  0.19236000  0.89276800  0.41715000  1
  O  O26  1  0.40525200  0.52243700  0.59226100  1
  O  O27  1  0.59474800  0.47756300  0.40773900  1
  O  O28  1  0.67041200  0.78059300  0.75000000  1
  O  O29  1  0.70040800  0.80764000  0.41715000  1
  O  O30  1  0.47756300  0.88281400  0.90773900  1
  O  O31  1  0.89276800  0.70040800  0.91715000  1
  O  O32  1  0.89276800  0.70040800  0.58285000  1
  O  O33  1  0.44685700  0.84572500  0.25000000  1
  O  O34  1  0.88281400  0.40525200  0.40773900  1
  O  O35  1  0.11718600  0.59474800  0.90773900  1
  O  O36  1  0.21940700  0.88981900  0.75000000  1
  O  O37  1  0.10723200  0.29959200  0.41715000  1
  O  O38  1  0.29959200  0.19236000  0.91715000  1
  O  O39  1  0.11018100  0.32958800  0.75000000  1
  O  O40  1  0.10723200  0.29959200  0.08285000  1
  O  O41  1  0.11718600  0.59474800  0.59226100  1
  O  O42  1  0.88281400  0.40525200  0.09226100  1
  O  O43  1  0.19236000  0.89276800  0.08285000  1
  O  O44  1  0.55314300  0.15427500  0.75000000  1
  O  O45  1  0.84572500  0.39886800  0.75000000  1
  O  O46  1  0.15427500  0.60113200  0.25000000  1
  O  O47  1  0.39886800  0.55314300  0.25000000  1
  O  O48  1  0.70040800  0.80764000  0.08285000  1
  O  O49  1  0.40525200  0.52243700  0.90773900  1
  O  O50  1  0.80764000  0.10723200  0.91715000  1
  O  O51  1  0.60113200  0.44685700  0.75000000  1
  O  O52  1  0.52243700  0.11718600  0.40773900  1
  O  O53  1  0.47756300  0.88281400  0.59226100  1
  O  O54  1  0.78059300  0.11018100  0.25000000  1
  O  O55  1  0.59474800  0.47756300  0.09226100  1
  O  O56  1  0.32958800  0.21940700  0.25000000  1
  O  O57  1  0.52243700  0.11718600  0.09226100  1
  O  O58  1  0.80764000  0.10723200  0.58285000  1
  O  O59  1  0.29959200  0.19236000  0.58285000  1
