# generated using pymatgen
data_La2TaCl3O4
_symmetry_space_group_name_H-M   'P 1'
_cell_length_a   3.97260800
_cell_length_b   15.76082000
_cell_length_c   18.27086800
_cell_angle_alpha   90.00000000
_cell_angle_beta   90.00000000
_cell_angle_gamma   90.00000000
_symmetry_Int_Tables_number   1
_chemical_formula_structural   La2TaCl3O4
_chemical_formula_sum   'La12 Ta6 Cl18 O24'
_cell_volume   1143.96754106
_cell_formula_units_Z   6
loop_
 _symmetry_equiv_pos_site_id
 _symmetry_equiv_pos_as_xyz
  1  'x, y, z'
loop_
 _atom_site_type_symbol
 _atom_site_label
 _atom_site_symmetry_multiplicity
 _atom_site_fract_x
 _atom_site_fract_y
 _atom_site_fract_z
 _atom_site_occupancy
  La  La0  1  0.50000000  0.67470300  0.61453700  1
  La  La1  1  0.50000000  0.15008400  0.90083700  1
  La  La2  1  0.00000000  0.82529700  0.38546300  1
  La  La3  1  0.50000000  0.84991600  0.90083700  1
  La  La4  1  0.50000000  0.32529700  0.61453700  1
  La  La5  1  0.00000000  0.00000000  0.13388800  1
  La  La6  1  0.00000000  0.17470300  0.38546300  1
  La  La7  1  0.50000000  0.50000000  0.34503100  1
  La  La8  1  0.00000000  0.65008400  0.09916300  1
  La  La9  1  0.50000000  0.50000000  0.86611200  1
  La  La10  1  0.00000000  0.34991600  0.09916300  1
  La  La11  1  0.00000000  0.00000000  0.65496900  1
  Ta  Ta12  1  0.00000000  0.50000000  0.51678700  1
  Ta  Ta13  1  0.50000000  0.80692300  0.20297200  1
  Ta  Ta14  1  0.50000000  0.19307700  0.20297200  1
  Ta  Ta15  1  0.00000000  0.69307700  0.79702800  1
  Ta  Ta16  1  0.00000000  0.30692300  0.79702800  1
  Ta  Ta17  1  0.50000000  0.00000000  0.48321300  1
  Cl  Cl18  1  0.50000000  0.66742800  0.97335200  1
  Cl  Cl19  1  0.00000000  0.83257200  0.02664800  1
  Cl  Cl20  1  0.00000000  0.00000000  0.85582600  1
  Cl  Cl21  1  0.50000000  0.33257200  0.97335200  1
  Cl  Cl22  1  0.00000000  0.50000000  0.99744400  1
  Cl  Cl23  1  0.50000000  0.50000000  0.14417400  1
  Cl  Cl24  1  0.00000000  0.16742800  0.02664800  1
  Cl  Cl25  1  0.50000000  0.11385000  0.72738400  1
  Cl  Cl26  1  0.00000000  0.38615000  0.27261600  1
  Cl  Cl27  1  0.50000000  0.88615000  0.72738400  1
  Cl  Cl28  1  0.50000000  0.50000000  0.70062400  1
  Cl  Cl29  1  0.00000000  0.18761200  0.56213200  1
  Cl  Cl30  1  0.50000000  0.68761200  0.43786800  1
  Cl  Cl31  1  0.50000000  0.00000000  0.00255600  1
  Cl  Cl32  1  0.00000000  0.00000000  0.29937600  1
  Cl  Cl33  1  0.50000000  0.31238800  0.43786800  1
  Cl  Cl34  1  0.00000000  0.81238800  0.56213200  1
  Cl  Cl35  1  0.00000000  0.61385000  0.27261600  1
  O  O36  1  0.00000000  0.41506400  0.83973100  1
  O  O37  1  0.50000000  0.50000000  0.51028600  1
  O  O38  1  0.00000000  0.30751500  0.69431800  1
  O  O39  1  0.50000000  0.08493600  0.16026900  1
  O  O40  1  0.00000000  0.58493600  0.83973100  1
  O  O41  1  0.00000000  0.20090800  0.19832700  1
  O  O42  1  0.00000000  0.79502400  0.85885800  1
  O  O43  1  0.50000000  0.00000000  0.58931200  1
  O  O44  1  0.50000000  0.70497600  0.14114200  1
  O  O45  1  0.50000000  0.70090800  0.80167300  1
  O  O46  1  0.00000000  0.20497600  0.85885800  1
  O  O47  1  0.00000000  0.69248500  0.69431800  1
  O  O48  1  0.00000000  0.60261900  0.56988500  1
  O  O49  1  0.50000000  0.91506400  0.16026900  1
  O  O50  1  0.00000000  0.00000000  0.48971400  1
  O  O51  1  0.50000000  0.10261900  0.43011500  1
  O  O52  1  0.00000000  0.50000000  0.41068800  1
  O  O53  1  0.50000000  0.89738100  0.43011500  1
  O  O54  1  0.00000000  0.39738100  0.56988500  1
  O  O55  1  0.50000000  0.29909200  0.80167300  1
  O  O56  1  0.50000000  0.80751500  0.30568200  1
  O  O57  1  0.50000000  0.19248500  0.30568200  1
  O  O58  1  0.00000000  0.79909200  0.19832700  1
  O  O59  1  0.50000000  0.29502400  0.14114200  1
