# generated using pymatgen
data_AgBTe4C(OF4)5
_symmetry_space_group_name_H-M   'P 1'
_cell_length_a   16.62941600
_cell_length_b   10.24001400
_cell_length_c   14.78908995
_cell_angle_alpha   57.11219361
_cell_angle_beta   90.00000000
_cell_angle_gamma   90.00000000
_symmetry_Int_Tables_number   1
_chemical_formula_structural   AgBTe4C(OF4)5
_chemical_formula_sum   'Ag4 B4 Te16 C4 O20 F80'
_cell_volume   2114.76192450
_cell_formula_units_Z   4
loop_
 _symmetry_equiv_pos_site_id
 _symmetry_equiv_pos_as_xyz
  1  'x, y, z'
loop_
 _atom_site_type_symbol
 _atom_site_label
 _atom_site_symmetry_multiplicity
 _atom_site_fract_x
 _atom_site_fract_y
 _atom_site_fract_z
 _atom_site_occupancy
  Ag  Ag0  1  0.67547200  0.30463300  0.04866700  1
  Ag  Ag1  1  0.32452800  0.69536700  0.95133300  1
  Ag  Ag2  1  0.82452800  0.30463300  0.54866700  1
  Ag  Ag3  1  0.17547200  0.69536700  0.45133300  1
  B  B4  1  0.26165600  0.41053900  0.94889900  1
  B  B5  1  0.23834400  0.41053900  0.44889900  1
  B  B6  1  0.76165600  0.58946100  0.55110100  1
  B  B7  1  0.73834400  0.58946100  0.05110100  1
  Te  Te8  1  0.63795700  0.51988200  0.24428200  1
  Te  Te9  1  0.13795700  0.48011800  0.25571800  1
  Te  Te10  1  0.36204300  0.48011800  0.75571800  1
  Te  Te11  1  0.35207400  0.12391700  0.53856100  1
  Te  Te12  1  0.60586100  0.73262800  0.87148300  1
  Te  Te13  1  0.86668700  0.32271200  0.16891400  1
  Te  Te14  1  0.89413900  0.73262800  0.37148300  1
  Te  Te15  1  0.10586100  0.26737200  0.62851700  1
  Te  Te16  1  0.14792600  0.12391700  0.03856100  1
  Te  Te17  1  0.63331300  0.32271200  0.66891400  1
  Te  Te18  1  0.86204300  0.51988200  0.74428200  1
  Te  Te19  1  0.36668700  0.67728800  0.33108600  1
  Te  Te20  1  0.64792600  0.87608300  0.46143900  1
  Te  Te21  1  0.13331300  0.67728800  0.83108600  1
  Te  Te22  1  0.39413900  0.26737200  0.12851700  1
  Te  Te23  1  0.85207400  0.87608300  0.96143900  1
  C  C24  1  0.62462700  0.12150700  0.05158700  1
  C  C25  1  0.37537300  0.87849300  0.94841300  1
  C  C26  1  0.87537300  0.12150700  0.55158700  1
  C  C27  1  0.12462700  0.87849300  0.44841300  1
  O  O28  1  0.28372100  0.38241200  0.86543000  1
  O  O29  1  0.59234500  0.02055800  0.05531900  1
  O  O30  1  0.23087000  0.57566200  0.90382300  1
  O  O31  1  0.79605900  0.70385400  0.97751400  1
  O  O32  1  0.26913000  0.57566200  0.40382300  1
  O  O33  1  0.20394100  0.29614600  0.02248600  1
  O  O34  1  0.21627900  0.38241200  0.36543000  1
  O  O35  1  0.66642300  0.57823900  0.99184800  1
  O  O36  1  0.09234500  0.97944200  0.44468100  1
  O  O37  1  0.76913000  0.42433800  0.09617700  1
  O  O38  1  0.78372100  0.61758800  0.63457000  1
  O  O39  1  0.16642300  0.42176100  0.50815200  1
  O  O40  1  0.29605900  0.29614600  0.52248600  1
  O  O41  1  0.73087000  0.42433800  0.59617700  1
  O  O42  1  0.90765500  0.02055800  0.55531900  1
  O  O43  1  0.33357700  0.42176100  0.00815200  1
  O  O44  1  0.70394100  0.70385400  0.47751400  1
  O  O45  1  0.83357700  0.57823900  0.49184800  1
  O  O46  1  0.71627900  0.61758800  0.13457000  1
  O  O47  1  0.40765500  0.97944200  0.94468100  1
  F  F48  1  0.56210200  0.42507700  0.35506800  1
  F  F49  1  0.07225900  0.55590400  0.95530900  1
  F  F50  1  0.21676600  0.60089800  0.15069100  1
  F  F51  1  0.61611300  0.77501700  0.60558600  1
  F  F52  1  0.55354100  0.63520800  0.14985500  1
  F  F53  1  0.38388700  0.22498300  0.39441400  1
  F  F54  1  0.12111800  0.11818000  0.59369800  1
  F  F55  1  0.71676600  0.39910200  0.34930900  1
  F  F56  1  0.15175600  0.32544900  0.22640900  1
  F  F57  1  0.06210200  0.57492300  0.14493200  1
  F  F58  1  0.45826800  0.12473800  0.24463300  1
  F  F59  1  0.08559800  0.41570900  0.66263400  1
  F  F60  1  0.54010200  0.21284200  0.74060800  1
  F  F61  1  0.98950200  0.66874400  0.45351100  1
  F  F62  1  0.34692200  0.82230100  0.36892300  1
  F  F63  1  0.43789800  0.57492300  0.64493200  1
  F  F64  1  0.09080000  0.94933700  0.06397600  1
  F  F65  1  0.73794700  0.95681000  0.49206900  1
  F  F66  1  0.28323400  0.60089800  0.65069100  1
  F  F67  1  0.94564400  0.80909500  0.92851700  1
  F  F68  1  0.84824400  0.67455100  0.77359100  1
  F  F69  1  0.38724100  0.54026500  0.28725600  1
  F  F70  1  0.76205300  0.95681000  0.99206900  1
  F  F71  1  0.94645900  0.63520800  0.64985500  1
  F  F72  1  0.23794700  0.04319000  0.00793100  1
  F  F73  1  0.93789800  0.42507700  0.85506800  1
  F  F74  1  0.95989800  0.21284200  0.24060800  1
  F  F75  1  0.55435600  0.80909500  0.42851700  1
  F  F76  1  0.04173200  0.12473800  0.74463300  1
  F  F77  1  0.92774100  0.44409600  0.04469100  1
  F  F78  1  0.18963700  0.80493000  0.70225400  1
  F  F79  1  0.45989800  0.78715800  0.25939200  1
  F  F80  1  0.44564400  0.19090500  0.57148300  1
  F  F81  1  0.30569600  0.19124700  0.22132200  1
  F  F82  1  0.04010200  0.78715800  0.75939200  1
  F  F83  1  0.62111800  0.88182000  0.90630200  1
  F  F84  1  0.57225900  0.44409600  0.54469100  1
  F  F85  1  0.34824400  0.32544900  0.72640900  1
  F  F86  1  0.68963700  0.19507000  0.79774600  1
  F  F87  1  0.05435600  0.19090500  0.07148300  1
  F  F88  1  0.38061900  0.64321600  0.77765600  1
  F  F89  1  0.37888200  0.11818000  0.09369800  1
  F  F90  1  0.11938100  0.64321600  0.27765600  1
  F  F91  1  0.61938100  0.35678400  0.22234400  1
  F  F92  1  0.05354100  0.36479200  0.35014500  1
  F  F93  1  0.19430400  0.19124700  0.72132200  1
  F  F94  1  0.15307800  0.82230100  0.86892300  1
  F  F95  1  0.69430400  0.80875300  0.77867800  1
  F  F96  1  0.17450100  0.00846100  0.18583200  1
  F  F97  1  0.42774100  0.55590400  0.45530900  1
  F  F98  1  0.48950200  0.33125600  0.04648900  1
  F  F99  1  0.41440200  0.41570900  0.16263400  1
  F  F100  1  0.01049800  0.33125600  0.54648900  1
  F  F101  1  0.95826800  0.87526200  0.25536700  1
  F  F102  1  0.32549900  0.00846100  0.68583200  1
  F  F103  1  0.44645900  0.36479200  0.85014500  1
  F  F104  1  0.11275900  0.54026500  0.78725600  1
  F  F105  1  0.88061900  0.35678400  0.72234400  1
  F  F106  1  0.84692200  0.17769900  0.13107700  1
  F  F107  1  0.90920000  0.05066300  0.93602400  1
  F  F108  1  0.67450100  0.99153900  0.31416800  1
  F  F109  1  0.88388700  0.77501700  0.10558600  1
  F  F110  1  0.51049800  0.66874400  0.95351100  1
  F  F111  1  0.54173200  0.87526200  0.75536700  1
  F  F112  1  0.61275900  0.45973500  0.71274400  1
  F  F113  1  0.26205300  0.04319000  0.50793100  1
  F  F114  1  0.65307800  0.17769900  0.63107700  1
  F  F115  1  0.11611300  0.22498300  0.89441400  1
  F  F116  1  0.59080000  0.05066300  0.43602400  1
  F  F117  1  0.91440200  0.58429100  0.33736600  1
  F  F118  1  0.78323400  0.39910200  0.84930900  1
  F  F119  1  0.40920000  0.94933700  0.56397600  1
  F  F120  1  0.88724100  0.45973500  0.21274400  1
  F  F121  1  0.31036300  0.80493000  0.20225400  1
  F  F122  1  0.87888200  0.88182000  0.40630200  1
  F  F123  1  0.82549900  0.99153900  0.81416800  1
  F  F124  1  0.80569600  0.80875300  0.27867800  1
  F  F125  1  0.65175600  0.67455100  0.27359100  1
  F  F126  1  0.58559800  0.58429100  0.83736600  1
  F  F127  1  0.81036300  0.19507000  0.29774600  1
