# generated using pymatgen
data_Ca(GaO2)2
_symmetry_space_group_name_H-M   'P 1'
_cell_length_a   7.83661700
_cell_length_b   9.24074200
_cell_length_c   10.45652200
_cell_angle_alpha   90.00000000
_cell_angle_beta   90.00000000
_cell_angle_gamma   90.00000000
_symmetry_Int_Tables_number   1
_chemical_formula_structural   Ca(GaO2)2
_chemical_formula_sum   'Ca8 Ga16 O32'
_cell_volume   757.22112680
_cell_formula_units_Z   8
loop_
 _symmetry_equiv_pos_site_id
 _symmetry_equiv_pos_as_xyz
  1  'x, y, z'
loop_
 _atom_site_type_symbol
 _atom_site_label
 _atom_site_symmetry_multiplicity
 _atom_site_fract_x
 _atom_site_fract_y
 _atom_site_fract_z
 _atom_site_occupancy
  Ca  Ca0  1  0.50258600  0.07858600  0.88686800  1
  Ca  Ca1  1  0.49593300  0.62695100  0.67912600  1
  Ca  Ca2  1  0.99593300  0.12695100  0.82087400  1
  Ca  Ca3  1  0.00258600  0.57858600  0.61313200  1
  Ca  Ca4  1  0.50406700  0.12695100  0.32087400  1
  Ca  Ca5  1  0.49741400  0.57858600  0.11313200  1
  Ca  Ca6  1  0.99741400  0.07858600  0.38686800  1
  Ca  Ca7  1  0.00406700  0.62695100  0.17912600  1
  Ga  Ga8  1  0.78598300  0.75113400  0.88304500  1
  Ga  Ga9  1  0.74303100  0.42396000  0.84789200  1
  Ga  Ga10  1  0.69370200  0.92373600  0.62862300  1
  Ga  Ga11  1  0.25696900  0.92396000  0.15210800  1
  Ga  Ga12  1  0.28598300  0.25113400  0.61695500  1
  Ga  Ga13  1  0.80629800  0.92373600  0.12862300  1
  Ga  Ga14  1  0.71401700  0.75113400  0.38304500  1
  Ga  Ga15  1  0.30629800  0.42373600  0.37137700  1
  Ga  Ga16  1  0.31267700  0.75095900  0.40620000  1
  Ga  Ga17  1  0.81267700  0.25095900  0.09380000  1
  Ga  Ga18  1  0.68732300  0.25095900  0.59380000  1
  Ga  Ga19  1  0.75696900  0.42396000  0.34789200  1
  Ga  Ga20  1  0.24303100  0.92396000  0.65210800  1
  Ga  Ga21  1  0.19370200  0.42373600  0.87137700  1
  Ga  Ga22  1  0.21401700  0.25113400  0.11695500  1
  Ga  Ga23  1  0.18732300  0.75095900  0.90620000  1
  O  O24  1  0.33799600  0.92417700  0.32080700  1
  O  O25  1  0.67333300  0.27216600  0.95129400  1
  O  O26  1  0.97863100  0.68817300  0.96855200  1
  O  O27  1  0.25028100  0.60121800  0.79545100  1
  O  O28  1  0.26112700  0.43056600  0.04281600  1
  O  O29  1  0.97339700  0.39808700  0.80186000  1
  O  O30  1  0.76112700  0.93056600  0.45718400  1
  O  O31  1  0.82666700  0.27216600  0.45129400  1
  O  O32  1  0.74971900  0.10121800  0.20454900  1
  O  O33  1  0.17333300  0.77216600  0.54870600  1
  O  O34  1  0.52136900  0.68817300  0.46855200  1
  O  O35  1  0.16200400  0.92417700  0.82080700  1
  O  O36  1  0.47339700  0.89808700  0.69814000  1
  O  O37  1  0.23887300  0.43056600  0.54281600  1
  O  O38  1  0.13713300  0.09344700  0.59129500  1
  O  O39  1  0.70453700  0.75703900  0.20333700  1
  O  O40  1  0.02136900  0.18817300  0.03144800  1
  O  O41  1  0.75028100  0.10121800  0.70454900  1
  O  O42  1  0.32666700  0.77216600  0.04870600  1
  O  O43  1  0.24971900  0.60121800  0.29545100  1
  O  O44  1  0.20453700  0.25703900  0.29666300  1
  O  O45  1  0.73887300  0.93056600  0.95718400  1
  O  O46  1  0.52660300  0.39808700  0.30186000  1
  O  O47  1  0.86286700  0.59344700  0.40870500  1
  O  O48  1  0.79546300  0.75703900  0.70333700  1
  O  O49  1  0.29546300  0.25703900  0.79666300  1
  O  O50  1  0.47863100  0.18817300  0.53144800  1
  O  O51  1  0.36286700  0.09344700  0.09129500  1
  O  O52  1  0.83799600  0.42417700  0.17919300  1
  O  O53  1  0.02660300  0.89808700  0.19814000  1
  O  O54  1  0.63713300  0.59344700  0.90870500  1
  O  O55  1  0.66200400  0.42417700  0.67919300  1
