# generated using pymatgen
data_SiO2
_symmetry_space_group_name_H-M   'P 1'
_cell_length_a   7.59365100
_cell_length_b   7.59365100
_cell_length_c   8.77770200
_cell_angle_alpha   90.00000000
_cell_angle_beta   90.00000000
_cell_angle_gamma   90.00000000
_symmetry_Int_Tables_number   1
_chemical_formula_structural   SiO2
_chemical_formula_sum   'Si12 O24'
_cell_volume   506.15333097
_cell_formula_units_Z   12
loop_
 _symmetry_equiv_pos_site_id
 _symmetry_equiv_pos_as_xyz
  1  'x, y, z'
loop_
 _atom_site_type_symbol
 _atom_site_label
 _atom_site_symmetry_multiplicity
 _atom_site_fract_x
 _atom_site_fract_y
 _atom_site_fract_z
 _atom_site_occupancy
  Si  Si0  1  0.91564500  0.08435500  0.25000000  1
  Si  Si1  1  0.38030100  0.82581600  0.99587700  1
  Si  Si2  1  0.82581600  0.38030100  0.00412300  1
  Si  Si3  1  0.11969900  0.32581600  0.75412300  1
  Si  Si4  1  0.88030100  0.67418400  0.25412300  1
  Si  Si5  1  0.58435500  0.58435500  0.50000000  1
  Si  Si6  1  0.67418400  0.88030100  0.74587700  1
  Si  Si7  1  0.41564500  0.41564500  0.00000000  1
  Si  Si8  1  0.17418400  0.61969900  0.50412300  1
  Si  Si9  1  0.32581600  0.11969900  0.24587700  1
  Si  Si10  1  0.61969900  0.17418400  0.49587700  1
  Si  Si11  1  0.08435500  0.91564500  0.75000000  1
  O  O12  1  0.37594500  0.94397800  0.14958400  1
  O  O13  1  0.37976200  0.61597000  0.45407000  1
  O  O14  1  0.79630400  0.13721600  0.39623600  1
  O  O15  1  0.87976200  0.88403000  0.79593000  1
  O  O16  1  0.62405500  0.05602200  0.64958400  1
  O  O17  1  0.88403000  0.87976200  0.20407000  1
  O  O18  1  0.20369600  0.86278400  0.89623600  1
  O  O19  1  0.94397800  0.37594500  0.85041600  1
  O  O20  1  0.87594500  0.55602200  0.10041600  1
  O  O21  1  0.05602200  0.62405500  0.35041600  1
  O  O22  1  0.12023800  0.11597000  0.29593000  1
  O  O23  1  0.29630400  0.36278400  0.85376400  1
  O  O24  1  0.12405500  0.44397800  0.60041600  1
  O  O25  1  0.61597000  0.37976200  0.54593000  1
  O  O26  1  0.44397800  0.12405500  0.39958400  1
  O  O27  1  0.13721600  0.79630400  0.60376400  1
  O  O28  1  0.63721600  0.70369600  0.64623600  1
  O  O29  1  0.55602200  0.87594500  0.89958400  1
  O  O30  1  0.11597000  0.12023800  0.70407000  1
  O  O31  1  0.62023800  0.38403000  0.95407000  1
  O  O32  1  0.70369600  0.63721600  0.35376400  1
  O  O33  1  0.38403000  0.62023800  0.04593000  1
  O  O34  1  0.36278400  0.29630400  0.14623600  1
  O  O35  1  0.86278400  0.20369600  0.10376400  1
