# generated using pymatgen
data_ErCuTe2BrO6
_symmetry_space_group_name_H-M   'P 1'
_cell_length_a   14.98411000
_cell_length_b   5.42640200
_cell_length_c   9.46809386
_cell_angle_alpha   81.44559738
_cell_angle_beta   90.00000000
_cell_angle_gamma   90.00000000
_symmetry_Int_Tables_number   1
_chemical_formula_structural   ErCuTe2BrO6
_chemical_formula_sum   'Er4 Cu4 Te8 Br4 O24'
_cell_volume   761.28434754
_cell_formula_units_Z   4
loop_
 _symmetry_equiv_pos_site_id
 _symmetry_equiv_pos_as_xyz
  1  'x, y, z'
loop_
 _atom_site_type_symbol
 _atom_site_label
 _atom_site_symmetry_multiplicity
 _atom_site_fract_x
 _atom_site_fract_y
 _atom_site_fract_z
 _atom_site_occupancy
  Er  Er0  1  0.58752300  0.25266100  0.98140600  1
  Er  Er1  1  0.41247700  0.74733900  0.01859400  1
  Er  Er2  1  0.08752300  0.74733900  0.51859400  1
  Er  Er3  1  0.91247700  0.25266100  0.48140600  1
  Cu  Cu4  1  0.23152700  0.73519300  0.80393000  1
  Cu  Cu5  1  0.73152700  0.26480700  0.69607000  1
  Cu  Cu6  1  0.76847300  0.26480700  0.19607000  1
  Cu  Cu7  1  0.26847300  0.73519300  0.30393000  1
  Te  Te8  1  0.90380000  0.76911200  0.21927200  1
  Te  Te9  1  0.64416900  0.74777300  0.22577700  1
  Te  Te10  1  0.59620000  0.76911200  0.71927200  1
  Te  Te11  1  0.09620000  0.23088800  0.78072800  1
  Te  Te12  1  0.40380000  0.23088800  0.28072800  1
  Te  Te13  1  0.35583100  0.25222700  0.77422300  1
  Te  Te14  1  0.85583100  0.74777300  0.72577700  1
  Te  Te15  1  0.14416900  0.25222700  0.27422300  1
  Br  Br16  1  0.90014600  0.25695100  0.95406800  1
  Br  Br17  1  0.59985400  0.25695100  0.45406800  1
  Br  Br18  1  0.40014600  0.74304900  0.54593200  1
  Br  Br19  1  0.09985400  0.74304900  0.04593200  1
  O  O20  1  0.68474400  0.52316800  0.79505100  1
  O  O21  1  0.47861700  0.37673100  0.12936800  1
  O  O22  1  0.85524300  0.03260400  0.30982000  1
  O  O23  1  0.97861700  0.62326900  0.37063200  1
  O  O24  1  0.14475700  0.96739600  0.69018000  1
  O  O25  1  0.35524300  0.96739600  0.19018000  1
  O  O26  1  0.95988400  0.88035500  0.62504900  1
  O  O27  1  0.70932900  0.01045100  0.10904400  1
  O  O28  1  0.29067100  0.98954900  0.89095600  1
  O  O29  1  0.02138300  0.37673100  0.62936800  1
  O  O30  1  0.18474400  0.47683200  0.70494900  1
  O  O31  1  0.79067100  0.01045100  0.60904400  1
  O  O32  1  0.17152000  0.50582100  0.38832200  1
  O  O33  1  0.81525600  0.52316800  0.29505100  1
  O  O34  1  0.31525600  0.47683200  0.20494900  1
  O  O35  1  0.54011600  0.88035500  0.12504900  1
  O  O36  1  0.20932900  0.98954900  0.39095600  1
  O  O37  1  0.45988400  0.11964500  0.87495100  1
  O  O38  1  0.52138300  0.62326900  0.87063200  1
  O  O39  1  0.67152000  0.49417900  0.11167800  1
  O  O40  1  0.64475700  0.03260400  0.80982000  1
  O  O41  1  0.32848000  0.50582100  0.88832200  1
  O  O42  1  0.82848000  0.49417900  0.61167800  1
  O  O43  1  0.04011600  0.11964500  0.37495100  1
