# generated using pymatgen
data_Na3NO4
_symmetry_space_group_name_H-M   'P 1'
_cell_length_a   8.71854700
_cell_length_b   9.14427000
_cell_length_c   9.82544900
_cell_angle_alpha   90.00000000
_cell_angle_beta   90.00000000
_cell_angle_gamma   90.00000000
_symmetry_Int_Tables_number   1
_chemical_formula_structural   Na3NO4
_chemical_formula_sum   'Na24 N8 O32'
_cell_volume   783.33144331
_cell_formula_units_Z   8
loop_
 _symmetry_equiv_pos_site_id
 _symmetry_equiv_pos_as_xyz
  1  'x, y, z'
loop_
 _atom_site_type_symbol
 _atom_site_label
 _atom_site_symmetry_multiplicity
 _atom_site_fract_x
 _atom_site_fract_y
 _atom_site_fract_z
 _atom_site_occupancy
  Na  Na0  1  0.61744000  0.96047400  0.85436700  1
  Na  Na1  1  0.20289800  0.24091800  0.38466500  1
  Na  Na2  1  0.38256000  0.53952600  0.35436700  1
  Na  Na3  1  0.29710200  0.74091800  0.61533500  1
  Na  Na4  1  0.29710200  0.24091800  0.88466500  1
  Na  Na5  1  0.54726300  0.87685600  0.39335300  1
  Na  Na6  1  0.88256000  0.46047400  0.14563300  1
  Na  Na7  1  0.45273700  0.12314400  0.60664700  1
  Na  Na8  1  0.95273700  0.37685600  0.60664700  1
  Na  Na9  1  0.20289800  0.74091800  0.11533500  1
  Na  Na10  1  0.70289800  0.75908200  0.11533500  1
  Na  Na11  1  0.11744000  0.03952600  0.64563300  1
  Na  Na12  1  0.61744000  0.46047400  0.64563300  1
  Na  Na13  1  0.79710200  0.25908200  0.88466500  1
  Na  Na14  1  0.95273700  0.87685600  0.89335300  1
  Na  Na15  1  0.88256000  0.96047400  0.35436700  1
  Na  Na16  1  0.11744000  0.53952600  0.85436700  1
  Na  Na17  1  0.54726300  0.37685600  0.10664700  1
  Na  Na18  1  0.04726300  0.62314400  0.39335300  1
  Na  Na19  1  0.79710200  0.75908200  0.61533500  1
  Na  Na20  1  0.70289800  0.25908200  0.38466500  1
  Na  Na21  1  0.04726300  0.12314400  0.10664700  1
  Na  Na22  1  0.45273700  0.62314400  0.89335300  1
  Na  Na23  1  0.38256000  0.03952600  0.14563300  1
  N  N24  1  0.71169600  0.09823500  0.11948300  1
  N  N25  1  0.78830400  0.09823500  0.61948300  1
  N  N26  1  0.71169600  0.59823500  0.38051700  1
  N  N27  1  0.21169600  0.90176500  0.38051700  1
  N  N28  1  0.78830400  0.59823500  0.88051700  1
  N  N29  1  0.28830400  0.40176500  0.61948300  1
  N  N30  1  0.28830400  0.90176500  0.88051700  1
  N  N31  1  0.21169600  0.40176500  0.11948300  1
  O  O32  1  0.60554000  0.14382700  0.02183600  1
  O  O33  1  0.20094900  0.28112300  0.66143100  1
  O  O34  1  0.89446000  0.64382700  0.97816400  1
  O  O35  1  0.19068000  0.50717100  0.56393300  1
  O  O36  1  0.20094900  0.78112300  0.83856900  1
  O  O37  1  0.30932000  0.00717100  0.43606700  1
  O  O38  1  0.63616800  0.54006700  0.26722900  1
  O  O39  1  0.10554000  0.85617300  0.47816400  1
  O  O40  1  0.70094900  0.21887700  0.66143100  1
  O  O41  1  0.39446000  0.35617300  0.52183600  1
  O  O42  1  0.13616800  0.95993300  0.26722900  1
  O  O43  1  0.79905100  0.71887700  0.33856900  1
  O  O44  1  0.29905100  0.78112300  0.33856900  1
  O  O45  1  0.13616800  0.45993300  0.23277100  1
  O  O46  1  0.39446000  0.85617300  0.97816400  1
  O  O47  1  0.80932000  0.99282900  0.06393300  1
  O  O48  1  0.19068000  0.00717100  0.93606700  1
  O  O49  1  0.36383200  0.95993300  0.76722900  1
  O  O50  1  0.36383200  0.45993300  0.73277100  1
  O  O51  1  0.86383200  0.54006700  0.76722900  1
  O  O52  1  0.79905100  0.21887700  0.16143100  1
  O  O53  1  0.60554000  0.64382700  0.47816400  1
  O  O54  1  0.10554000  0.35617300  0.02183600  1
  O  O55  1  0.80932000  0.49282900  0.43606700  1
  O  O56  1  0.29905100  0.28112300  0.16143100  1
  O  O57  1  0.89446000  0.14382700  0.52183600  1
  O  O58  1  0.86383200  0.04006700  0.73277100  1
  O  O59  1  0.70094900  0.71887700  0.83856900  1
  O  O60  1  0.63616800  0.04006700  0.23277100  1
  O  O61  1  0.30932000  0.50717100  0.06393300  1
  O  O62  1  0.69068000  0.99282900  0.56393300  1
  O  O63  1  0.69068000  0.49282900  0.93606700  1
