# generated using pymatgen
data_SbSO2F5
_symmetry_space_group_name_H-M   'P 1'
_cell_length_a   10.74275400
_cell_length_b   5.95643000
_cell_length_c   10.77842103
_cell_angle_alpha   69.79399795
_cell_angle_beta   90.00000000
_cell_angle_gamma   90.00000000
_symmetry_Int_Tables_number   1
_chemical_formula_structural   SbSO2F5
_chemical_formula_sum   'Sb4 S4 O8 F20'
_cell_volume   647.24860628
_cell_formula_units_Z   4
loop_
 _symmetry_equiv_pos_site_id
 _symmetry_equiv_pos_as_xyz
  1  'x, y, z'
loop_
 _atom_site_type_symbol
 _atom_site_label
 _atom_site_symmetry_multiplicity
 _atom_site_fract_x
 _atom_site_fract_y
 _atom_site_fract_z
 _atom_site_occupancy
  Sb  Sb0  1  0.45862400  0.92219200  0.76953900  1
  Sb  Sb1  1  0.04137600  0.92219200  0.26953900  1
  Sb  Sb2  1  0.54137600  0.07780800  0.23046100  1
  Sb  Sb3  1  0.95862400  0.07780800  0.73046100  1
  S  S4  1  0.74752500  0.52327100  0.06485400  1
  S  S5  1  0.25247500  0.47672900  0.93514600  1
  S  S6  1  0.75247500  0.52327100  0.56485400  1
  S  S7  1  0.24752500  0.47672900  0.43514600  1
  O  O8  1  0.23829100  0.56945200  0.04041300  1
  O  O9  1  0.73829100  0.43054800  0.45958700  1
  O  O10  1  0.83699500  0.38862100  0.67565600  1
  O  O11  1  0.26170900  0.56945200  0.54041300  1
  O  O12  1  0.76170900  0.43054800  0.95958700  1
  O  O13  1  0.66300500  0.38862100  0.17565600  1
  O  O14  1  0.16300500  0.61137900  0.32434400  1
  O  O15  1  0.33699500  0.61137900  0.82434400  1
  F  F16  1  0.66355100  0.93136000  0.15573300  1
  F  F17  1  0.53272800  0.78041500  0.94048000  1
  F  F18  1  0.93300900  0.19111500  0.21833400  1
  F  F19  1  0.43300900  0.80888500  0.28166600  1
  F  F20  1  0.16355100  0.06864000  0.34426700  1
  F  F21  1  0.56271600  0.72885800  0.70526300  1
  F  F22  1  0.06699100  0.80888500  0.78166600  1
  F  F23  1  0.96727200  0.78041500  0.44048000  1
  F  F24  1  0.86901900  0.97547800  0.89270000  1
  F  F25  1  0.13098100  0.02452200  0.10730000  1
  F  F26  1  0.33644900  0.06864000  0.84426700  1
  F  F27  1  0.93728400  0.72885800  0.20526300  1
  F  F28  1  0.63098100  0.97547800  0.39270000  1
  F  F29  1  0.46727200  0.21958500  0.05952000  1
  F  F30  1  0.56699100  0.19111500  0.71833400  1
  F  F31  1  0.36901900  0.02452200  0.60730000  1
  F  F32  1  0.83644900  0.93136000  0.65573300  1
  F  F33  1  0.06271600  0.27114200  0.79473700  1
  F  F34  1  0.03272800  0.21958500  0.55952000  1
  F  F35  1  0.43728400  0.27114200  0.29473700  1
