# generated using pymatgen
data_K2MnF6
_symmetry_space_group_name_H-M   'P 1'
_cell_length_a   5.83422966
_cell_length_b   5.83422966
_cell_length_c   9.53848300
_cell_angle_alpha   90.00000000
_cell_angle_beta   90.00000000
_cell_angle_gamma   119.99999616
_symmetry_Int_Tables_number   1
_chemical_formula_structural   K2MnF6
_chemical_formula_sum   'K4 Mn2 F12'
_cell_volume   281.17519193
_cell_formula_units_Z   2
loop_
 _symmetry_equiv_pos_site_id
 _symmetry_equiv_pos_as_xyz
  1  'x, y, z'
loop_
 _atom_site_type_symbol
 _atom_site_label
 _atom_site_symmetry_multiplicity
 _atom_site_fract_x
 _atom_site_fract_y
 _atom_site_fract_z
 _atom_site_occupancy
  K  K0  1  0.00000000  0.00000000  0.09928300  1
  K  K1  1  0.00000000  0.00000000  0.59928300  1
  K  K2  1  0.66666700  0.33333300  0.37234800  1
  K  K3  1  0.33333300  0.66666700  0.87234800  1
  Mn  Mn4  1  0.66666700  0.33333300  0.75690400  1
  Mn  Mn5  1  0.33333300  0.66666700  0.25690400  1
  F  F6  1  0.51852700  0.48147300  0.64334900  1
  F  F7  1  0.03705300  0.51852700  0.14334900  1
  F  F8  1  0.48147300  0.96294700  0.14334900  1
  F  F9  1  0.51852700  0.03705300  0.64334900  1
  F  F10  1  0.96294700  0.48147300  0.64334900  1
  F  F11  1  0.48147300  0.51852700  0.14334900  1
  F  F12  1  0.18061900  0.81938100  0.36380700  1
  F  F13  1  0.36123900  0.18061900  0.86380700  1
  F  F14  1  0.81938100  0.63876100  0.86380700  1
  F  F15  1  0.18061900  0.36123900  0.36380700  1
  F  F16  1  0.63876100  0.81938100  0.36380700  1
  F  F17  1  0.81938100  0.18061900  0.86380700  1
