# generated using pymatgen
data_SiO2
_symmetry_space_group_name_H-M   'P 1'
_cell_length_a   11.59348600
_cell_length_b   11.59348600
_cell_length_c   5.19220000
_cell_angle_alpha   90.00000000
_cell_angle_beta   90.00000000
_cell_angle_gamma   90.00000000
_symmetry_Int_Tables_number   1
_chemical_formula_structural   SiO2
_chemical_formula_sum   'Si16 O32'
_cell_volume   697.87798213
_cell_formula_units_Z   16
loop_
 _symmetry_equiv_pos_site_id
 _symmetry_equiv_pos_as_xyz
  1  'x, y, z'
loop_
 _atom_site_type_symbol
 _atom_site_label
 _atom_site_symmetry_multiplicity
 _atom_site_fract_x
 _atom_site_fract_y
 _atom_site_fract_z
 _atom_site_occupancy
  Si  Si0  1  0.15565200  0.07594600  0.98929500  1
  Si  Si1  1  0.59746200  0.19990600  0.72310100  1
  Si  Si2  1  0.65565200  0.42405400  0.51070500  1
  Si  Si3  1  0.57594600  0.65565200  0.48929500  1
  Si  Si4  1  0.69990600  0.09746200  0.22310100  1
  Si  Si5  1  0.92405400  0.15565200  0.01070500  1
  Si  Si6  1  0.34434800  0.57594600  0.51070500  1
  Si  Si7  1  0.40253800  0.80009400  0.72310100  1
  Si  Si8  1  0.90253800  0.69990600  0.77689900  1
  Si  Si9  1  0.80009400  0.59746200  0.27689900  1
  Si  Si10  1  0.30009400  0.90253800  0.22310100  1
  Si  Si11  1  0.09746200  0.30009400  0.77689900  1
  Si  Si12  1  0.19990600  0.40253800  0.27689900  1
  Si  Si13  1  0.42405400  0.34434800  0.48929500  1
  Si  Si14  1  0.84434800  0.92405400  0.98929500  1
  Si  Si15  1  0.07594600  0.84434800  0.01070500  1
  O  O16  1  0.82009900  0.81680700  0.79248800  1
  O  O17  1  0.18319300  0.82009900  0.20751200  1
  O  O18  1  0.86030400  0.60852600  0.99877100  1
  O  O19  1  0.60852600  0.13969600  0.00122900  1
  O  O20  1  0.61896900  0.54404700  0.66600200  1
  O  O21  1  0.23542000  0.53850100  0.32962200  1
  O  O22  1  0.26458000  0.03850100  0.17037800  1
  O  O23  1  0.11896900  0.95595300  0.83399800  1
  O  O24  1  0.45595300  0.61896900  0.33399800  1
  O  O25  1  0.53850100  0.76458000  0.67037800  1
  O  O26  1  0.38103100  0.45595300  0.66600200  1
  O  O27  1  0.95595300  0.88103100  0.16600200  1
  O  O28  1  0.76458000  0.46149900  0.32962200  1
  O  O29  1  0.17990100  0.18319300  0.79248800  1
  O  O30  1  0.81680700  0.17990100  0.20751200  1
  O  O31  1  0.46149900  0.23542000  0.67037800  1
  O  O32  1  0.10852600  0.36030400  0.49877100  1
  O  O33  1  0.89147400  0.63969600  0.49877100  1
  O  O34  1  0.31680700  0.32009900  0.29248800  1
  O  O35  1  0.03850100  0.73542000  0.82962200  1
  O  O36  1  0.68319300  0.67990100  0.29248800  1
  O  O37  1  0.04404700  0.11896900  0.16600200  1
  O  O38  1  0.63969600  0.10852600  0.50122900  1
  O  O39  1  0.36030400  0.89147400  0.50122900  1
  O  O40  1  0.96149900  0.26458000  0.82962200  1
  O  O41  1  0.73542000  0.96149900  0.17037800  1
  O  O42  1  0.88103100  0.04404700  0.83399800  1
  O  O43  1  0.32009900  0.68319300  0.70751200  1
  O  O44  1  0.67990100  0.31680700  0.70751200  1
  O  O45  1  0.54404700  0.38103100  0.33399800  1
  O  O46  1  0.39147400  0.86030400  0.00122900  1
  O  O47  1  0.13969600  0.39147400  0.99877100  1
