# generated using pymatgen
data_AlPO4
_symmetry_space_group_name_H-M   'P 1'
_cell_length_a   5.16057161
_cell_length_b   5.16057161
_cell_length_c   11.36091100
_cell_angle_alpha   90.00000000
_cell_angle_beta   90.00000000
_cell_angle_gamma   119.99999500
_symmetry_Int_Tables_number   1
_chemical_formula_structural   AlPO4
_chemical_formula_sum   'Al3 P3 O12'
_cell_volume   262.02300859
_cell_formula_units_Z   3
loop_
 _symmetry_equiv_pos_site_id
 _symmetry_equiv_pos_as_xyz
  1  'x, y, z'
loop_
 _atom_site_type_symbol
 _atom_site_label
 _atom_site_symmetry_multiplicity
 _atom_site_fract_x
 _atom_site_fract_y
 _atom_site_fract_z
 _atom_site_occupancy
  Al  Al0  1  0.00000000  0.50000000  0.83333300  1
  Al  Al1  1  0.50000000  0.00000000  0.50000000  1
  Al  Al2  1  0.50000000  0.50000000  0.16666700  1
  P  P3  1  0.50000000  0.50000000  0.66666700  1
  P  P4  1  0.00000000  0.50000000  0.33333300  1
  P  P5  1  0.50000000  0.00000000  0.00000000  1
  O  O6  1  0.19353000  0.77370200  0.41074900  1
  O  O7  1  0.22629800  0.80647000  0.92258500  1
  O  O8  1  0.80647000  0.22629800  0.41074900  1
  O  O9  1  0.22629800  0.41982800  0.74408200  1
  O  O10  1  0.19353000  0.41982800  0.25591800  1
  O  O11  1  0.58017200  0.80647000  0.07741500  1
  O  O12  1  0.77370200  0.19353000  0.92258500  1
  O  O13  1  0.41982800  0.19353000  0.07741500  1
  O  O14  1  0.58017200  0.77370200  0.58925100  1
  O  O15  1  0.80647000  0.58017200  0.25591800  1
  O  O16  1  0.77370200  0.58017200  0.74408200  1
  O  O17  1  0.41982800  0.22629800  0.58925100  1
