# generated using pymatgen
data_Al(HO)3
_symmetry_space_group_name_H-M   'P 1'
_cell_length_a   8.76699600
_cell_length_b   4.83916500
_cell_length_c   5.10534731
_cell_angle_alpha   78.62945989
_cell_angle_beta   90.00000000
_cell_angle_gamma   90.00000000
_symmetry_Int_Tables_number   1
_chemical_formula_structural   Al(HO)3
_chemical_formula_sum   'Al4 H12 O12'
_cell_volume   212.34289246
_cell_formula_units_Z   4
loop_
 _symmetry_equiv_pos_site_id
 _symmetry_equiv_pos_as_xyz
  1  'x, y, z'
loop_
 _atom_site_type_symbol
 _atom_site_label
 _atom_site_symmetry_multiplicity
 _atom_site_fract_x
 _atom_site_fract_y
 _atom_site_fract_z
 _atom_site_occupancy
  Al  Al0  1  0.33506700  0.98018800  0.04639500  1
  Al  Al1  1  0.83506700  0.01981200  0.45360500  1
  Al  Al2  1  0.66493300  0.01981200  0.95360500  1
  Al  Al3  1  0.16493300  0.98018800  0.54639500  1
  H  H4  1  0.38415900  0.63757900  0.75009900  1
  H  H5  1  0.04404000  0.20653500  0.13685300  1
  H  H6  1  0.88415900  0.36242100  0.74990100  1
  H  H7  1  0.45596000  0.20653500  0.63685300  1
  H  H8  1  0.95596000  0.79346500  0.86314700  1
  H  H9  1  0.18865400  0.39068500  0.79102500  1
  H  H10  1  0.31134600  0.39068500  0.29102500  1
  H  H11  1  0.68865400  0.60931500  0.70897500  1
  H  H12  1  0.61584100  0.36242100  0.24990100  1
  H  H13  1  0.81134600  0.60931500  0.20897500  1
  H  H14  1  0.11584100  0.63757900  0.25009900  1
  H  H15  1  0.54404000  0.79346500  0.36314700  1
  O  O16  1  0.82921500  0.81378100  0.16580200  1
  O  O17  1  0.51700100  0.78429700  0.17755400  1
  O  O18  1  0.79866300  0.25011700  0.70694900  1
  O  O19  1  0.98299900  0.78429700  0.67755400  1
  O  O20  1  0.32921500  0.18621900  0.33419800  1
  O  O21  1  0.70133700  0.25011700  0.20694900  1
  O  O22  1  0.67078500  0.81378100  0.66580200  1
  O  O23  1  0.01700100  0.21570300  0.32244600  1
  O  O24  1  0.17078500  0.18621900  0.83419800  1
  O  O25  1  0.20133700  0.74988300  0.29305100  1
  O  O26  1  0.29866300  0.74988300  0.79305100  1
  O  O27  1  0.48299900  0.21570300  0.82244600  1
