# generated using pymatgen
data_Na3B5SO8
_symmetry_space_group_name_H-M   'P 1'
_cell_length_a   6.32610100
_cell_length_b   11.07041400
_cell_length_c   11.62184086
_cell_angle_alpha   86.61512829
_cell_angle_beta   90.00000000
_cell_angle_gamma   90.00000000
_symmetry_Int_Tables_number   1
_chemical_formula_structural   Na3B5SO8
_chemical_formula_sum   'Na12 B20 S4 O32'
_cell_volume   812.48733306
_cell_formula_units_Z   4
loop_
 _symmetry_equiv_pos_site_id
 _symmetry_equiv_pos_as_xyz
  1  'x, y, z'
loop_
 _atom_site_type_symbol
 _atom_site_label
 _atom_site_symmetry_multiplicity
 _atom_site_fract_x
 _atom_site_fract_y
 _atom_site_fract_z
 _atom_site_occupancy
  Na  Na0  1  0.30697100  0.80262000  0.47488900  1
  Na  Na1  1  0.80697100  0.69738000  0.52511100  1
  Na  Na2  1  0.92269800  0.64653500  0.78937200  1
  Na  Na3  1  0.21731000  0.10922900  0.02053600  1
  Na  Na4  1  0.07730200  0.35346500  0.21062800  1
  Na  Na5  1  0.71731000  0.39077100  0.97946400  1
  Na  Na6  1  0.28269000  0.60922900  0.02053600  1
  Na  Na7  1  0.78269000  0.89077100  0.97946400  1
  Na  Na8  1  0.42269800  0.85346500  0.21062800  1
  Na  Na9  1  0.69302900  0.19738000  0.52511100  1
  Na  Na10  1  0.57730200  0.14653500  0.78937200  1
  Na  Na11  1  0.19302900  0.30262000  0.47488900  1
  B  B12  1  0.98758700  0.95607400  0.67491600  1
  B  B13  1  0.40512700  0.67281000  0.70140400  1
  B  B14  1  0.38362200  0.81671200  0.85946500  1
  B  B15  1  0.66061600  0.97860800  0.37789400  1
  B  B16  1  0.59487300  0.32719000  0.29859600  1
  B  B17  1  0.88362200  0.68328800  0.14053500  1
  B  B18  1  0.38684200  0.12747200  0.31229100  1
  B  B19  1  0.61315800  0.87252800  0.68770900  1
  B  B20  1  0.48758700  0.54392600  0.32508400  1
  B  B21  1  0.33938400  0.02139200  0.62210600  1
  B  B22  1  0.88684200  0.37252800  0.68770900  1
  B  B23  1  0.90512700  0.82719000  0.29859600  1
  B  B24  1  0.09487300  0.17281000  0.70140400  1
  B  B25  1  0.11315800  0.62747200  0.31229100  1
  B  B26  1  0.11637800  0.31671200  0.85946500  1
  B  B27  1  0.61637800  0.18328800  0.14053500  1
  B  B28  1  0.01241300  0.04392600  0.32508400  1
  B  B29  1  0.16061600  0.52139200  0.62210600  1
  B  B30  1  0.83938400  0.47860800  0.37789400  1
  B  B31  1  0.51241300  0.45607400  0.67491600  1
  S  S32  1  0.75114000  0.13564700  0.01172400  1
  S  S33  1  0.24886000  0.86435300  0.98827600  1
  S  S34  1  0.25114000  0.36435300  0.98827600  1
  S  S35  1  0.74886000  0.63564700  0.01172400  1
  O  O36  1  0.82008300  0.06550900  0.38092100  1
  O  O37  1  0.97605200  0.26647400  0.63764800  1
  O  O38  1  0.17991700  0.93449100  0.61907900  1
  O  O39  1  0.04629400  0.61480600  0.19059700  1
  O  O40  1  0.95370600  0.38519400  0.80940300  1
  O  O41  1  0.32036600  0.71034100  0.81292800  1
  O  O42  1  0.95388700  0.06454600  0.72180600  1
  O  O43  1  0.71174300  0.85939000  0.36730200  1
  O  O44  1  0.54611300  0.56454600  0.72180600  1
  O  O45  1  0.34664700  0.63818000  0.32093800  1
  O  O46  1  0.17963400  0.21034100  0.81292800  1
  O  O47  1  0.45171400  0.01151500  0.37787700  1
  O  O48  1  0.95171400  0.48848500  0.62212300  1
  O  O49  1  0.04828600  0.51151500  0.37787700  1
  O  O50  1  0.21174300  0.64061000  0.63269800  1
  O  O51  1  0.84664700  0.86182000  0.67906200  1
  O  O52  1  0.54629400  0.88519400  0.80940300  1
  O  O53  1  0.15335300  0.13818000  0.32093800  1
  O  O54  1  0.45388700  0.43545400  0.27819400  1
  O  O55  1  0.82036600  0.78965900  0.18707200  1
  O  O56  1  0.54828600  0.98848500  0.62212300  1
  O  O57  1  0.52394800  0.76647400  0.63764800  1
  O  O58  1  0.67963400  0.28965900  0.18707200  1
  O  O59  1  0.67991700  0.56550900  0.38092100  1
  O  O60  1  0.32008300  0.43449100  0.61907900  1
  O  O61  1  0.45370600  0.11480600  0.19059700  1
  O  O62  1  0.78825700  0.35939000  0.36730200  1
  O  O63  1  0.04611300  0.93545400  0.27819400  1
  O  O64  1  0.28825700  0.14061000  0.63269800  1
  O  O65  1  0.02394800  0.73352600  0.36235200  1
  O  O66  1  0.65335300  0.36182000  0.67906200  1
  O  O67  1  0.47605200  0.23352600  0.36235200  1
