# generated using pymatgen
data_Ca2Zr(SiO3)4
_symmetry_space_group_name_H-M   'P 1'
_cell_length_a   13.85042000
_cell_length_b   5.39167200
_cell_length_c   7.50837199
_cell_angle_alpha   71.10511741
_cell_angle_beta   90.00000000
_cell_angle_gamma   90.00000000
_symmetry_Int_Tables_number   1
_chemical_formula_structural   Ca2Zr(SiO3)4
_chemical_formula_sum   'Ca4 Zr2 Si8 O24'
_cell_volume   530.48827350
_cell_formula_units_Z   2
loop_
 _symmetry_equiv_pos_site_id
 _symmetry_equiv_pos_as_xyz
  1  'x, y, z'
loop_
 _atom_site_type_symbol
 _atom_site_label
 _atom_site_symmetry_multiplicity
 _atom_site_fract_x
 _atom_site_fract_y
 _atom_site_fract_z
 _atom_site_occupancy
  Ca  Ca0  1  0.00000000  0.00000000  0.50000000  1
  Ca  Ca1  1  0.25000000  0.16533400  0.18630200  1
  Ca  Ca2  1  0.75000000  0.83466600  0.81369800  1
  Ca  Ca3  1  0.50000000  0.00000000  0.50000000  1
  Zr  Zr4  1  0.50000000  0.00000000  0.00000000  1
  Zr  Zr5  1  0.00000000  0.00000000  0.00000000  1
  Si  Si6  1  0.63976400  0.43188200  0.61554000  1
  Si  Si7  1  0.86241400  0.43323800  0.18217900  1
  Si  Si8  1  0.86023600  0.43188200  0.61554000  1
  Si  Si9  1  0.13758600  0.56676200  0.81782100  1
  Si  Si10  1  0.13976400  0.56811800  0.38446000  1
  Si  Si11  1  0.63758600  0.43323800  0.18217900  1
  Si  Si12  1  0.36241400  0.56676200  0.81782100  1
  Si  Si13  1  0.36023600  0.56811800  0.38446000  1
  O  O14  1  0.06797000  0.79394600  0.84237300  1
  O  O15  1  0.86738700  0.72487300  0.62173400  1
  O  O16  1  0.88117000  0.73180200  0.04555300  1
  O  O17  1  0.12307800  0.59694000  0.59430100  1
  O  O18  1  0.93472700  0.21221300  0.74356700  1
  O  O19  1  0.75000000  0.30590900  0.68720600  1
  O  O20  1  0.87692200  0.40306000  0.40569900  1
  O  O21  1  0.25000000  0.69409100  0.31279400  1
  O  O22  1  0.36738700  0.27512700  0.37826600  1
  O  O23  1  0.75000000  0.37017000  0.13731300  1
  O  O24  1  0.25000000  0.62983000  0.86268700  1
  O  O25  1  0.62307800  0.40306000  0.40569900  1
  O  O26  1  0.11883000  0.26819800  0.95444700  1
  O  O27  1  0.43203000  0.79394600  0.84237300  1
  O  O28  1  0.06527300  0.78778700  0.25643300  1
  O  O29  1  0.93203000  0.20605400  0.15762700  1
  O  O30  1  0.56527300  0.21221300  0.74356700  1
  O  O31  1  0.61883000  0.73180200  0.04555300  1
  O  O32  1  0.63261300  0.72487300  0.62173400  1
  O  O33  1  0.37692200  0.59694000  0.59430100  1
  O  O34  1  0.13261300  0.27512700  0.37826600  1
  O  O35  1  0.43472700  0.78778700  0.25643300  1
  O  O36  1  0.38117000  0.26819800  0.95444700  1
  O  O37  1  0.56797000  0.20605400  0.15762700  1
