# generated using pymatgen
data_GdP4H4NO12
_symmetry_space_group_name_H-M   'P 1'
_cell_length_a   9.11267800
_cell_length_b   10.51559900
_cell_length_c   12.82409757
_cell_angle_alpha   55.18477200
_cell_angle_beta   90.00000000
_cell_angle_gamma   90.00000000
_symmetry_Int_Tables_number   1
_chemical_formula_structural   GdP4H4NO12
_chemical_formula_sum   'Gd4 P16 H16 N4 O48'
_cell_volume   1008.90131352
_cell_formula_units_Z   4
loop_
 _symmetry_equiv_pos_site_id
 _symmetry_equiv_pos_as_xyz
  1  'x, y, z'
loop_
 _atom_site_type_symbol
 _atom_site_label
 _atom_site_symmetry_multiplicity
 _atom_site_fract_x
 _atom_site_fract_y
 _atom_site_fract_z
 _atom_site_occupancy
  Gd  Gd0  1  0.72433100  0.18590400  0.81240600  1
  Gd  Gd1  1  0.22433100  0.81409600  0.68759400  1
  Gd  Gd2  1  0.27566900  0.81409600  0.18759400  1
  Gd  Gd3  1  0.77566900  0.18590400  0.31240600  1
  P  P4  1  0.58879500  0.88819200  0.75737800  1
  P  P5  1  0.08879500  0.11180800  0.74262200  1
  P  P6  1  0.82581500  0.81918200  0.63986900  1
  P  P7  1  0.39421200  0.69839000  0.98003900  1
  P  P8  1  0.17418500  0.18081800  0.36013100  1
  P  P9  1  0.91120500  0.88819200  0.25737800  1
  P  P10  1  0.60578800  0.30161000  0.01996100  1
  P  P11  1  0.02757400  0.47814100  0.27177200  1
  P  P12  1  0.10578800  0.69839000  0.48003900  1
  P  P13  1  0.89421200  0.30161000  0.51996100  1
  P  P14  1  0.52757400  0.52185900  0.22822800  1
  P  P15  1  0.67418500  0.81918200  0.13986900  1
  P  P16  1  0.47242600  0.47814100  0.77177200  1
  P  P17  1  0.97242600  0.52185900  0.72822800  1
  P  P18  1  0.41120500  0.11180800  0.24262200  1
  P  P19  1  0.32581500  0.18081800  0.86013100  1
  H  H20  1  0.06924900  0.22762100  0.13655500  1
  H  H21  1  0.53442200  0.25507100  0.51657600  1
  H  H22  1  0.89310200  0.62660000  0.02020700  1
  H  H23  1  0.10689800  0.37340000  0.97979300  1
  H  H24  1  0.56924900  0.77237900  0.36344500  1
  H  H25  1  0.46557800  0.74492900  0.48342400  1
  H  H26  1  0.36412000  0.18491000  0.53624800  1
  H  H27  1  0.63588000  0.81509000  0.46375200  1
  H  H28  1  0.93075100  0.77237900  0.86344500  1
  H  H29  1  0.60689800  0.62660000  0.52020700  1
  H  H30  1  0.03442200  0.74492900  0.98342400  1
  H  H31  1  0.86412000  0.81509000  0.96375200  1
  H  H32  1  0.43075100  0.22762100  0.63655500  1
  H  H33  1  0.96557800  0.25507100  0.01657600  1
  H  H34  1  0.13588000  0.18491000  0.03624800  1
  H  H35  1  0.39310200  0.37340000  0.47979300  1
  N  N36  1  0.07045100  0.26105400  0.04322700  1
  N  N37  1  0.42954900  0.26105400  0.54322700  1
  N  N38  1  0.92954900  0.73894600  0.95677300  1
  N  N39  1  0.57045100  0.73894600  0.45677300  1
  O  O40  1  0.90309600  0.36494900  0.80674300  1
  O  O41  1  0.65790900  0.65039700  0.16541100  1
  O  O42  1  0.15970400  0.79948700  0.51974600  1
  O  O43  1  0.32666800  0.97988400  0.25836700  1
  O  O44  1  0.58240700  0.43546000  0.70862200  1
  O  O45  1  0.23561000  0.07602600  0.49182500  1
  O  O46  1  0.84209100  0.65039700  0.66541100  1
  O  O47  1  0.09690400  0.63505100  0.19325700  1
  O  O48  1  0.20090600  0.22211700  0.75582700  1
  O  O49  1  0.73561000  0.92397400  0.00817500  1
  O  O50  1  0.04792100  0.23381000  0.59528200  1
  O  O51  1  0.29127200  0.66217200  0.90888200  1
  O  O52  1  0.40309600  0.63505100  0.69325700  1
  O  O53  1  0.17333200  0.97988400  0.75836700  1
  O  O54  1  0.84029600  0.20051300  0.48025400  1
  O  O55  1  0.65970400  0.20051300  0.98025400  1
  O  O56  1  0.54792100  0.76619000  0.90471800  1
  O  O57  1  0.34209100  0.34960300  0.83458900  1
  O  O58  1  0.82666800  0.02011600  0.24163300  1
  O  O59  1  0.03695800  0.13984700  0.32009500  1
  O  O60  1  0.29909400  0.22211700  0.25582700  1
  O  O61  1  0.67333200  0.02011600  0.74163300  1
  O  O62  1  0.41759300  0.56454000  0.29137800  1
  O  O63  1  0.79909400  0.77788300  0.24417300  1
  O  O64  1  0.95207900  0.76619000  0.40471800  1
  O  O65  1  0.15790900  0.34960300  0.33458900  1
  O  O66  1  0.95621600  0.07705500  0.82419500  1
  O  O67  1  0.34029600  0.79948700  0.01974600  1
  O  O68  1  0.95562700  0.46098500  0.39532400  1
  O  O69  1  0.45207900  0.23381000  0.09528200  1
  O  O70  1  0.54378400  0.07705500  0.32419500  1
  O  O71  1  0.53695800  0.86015300  0.17990500  1
  O  O72  1  0.70872800  0.33782800  0.09111800  1
  O  O73  1  0.45562700  0.53901500  0.10467600  1
  O  O74  1  0.91759300  0.43546000  0.20862200  1
  O  O75  1  0.70090600  0.77788300  0.74417300  1
  O  O76  1  0.20872800  0.66217200  0.40888200  1
  O  O77  1  0.08240700  0.56454000  0.79137800  1
  O  O78  1  0.46304200  0.13984700  0.82009500  1
  O  O79  1  0.45621600  0.92294500  0.67580500  1
  O  O80  1  0.04378400  0.92294500  0.17580500  1
  O  O81  1  0.79127200  0.33782800  0.59111800  1
  O  O82  1  0.59690400  0.36494900  0.30674300  1
  O  O83  1  0.04437300  0.53901500  0.60467600  1
  O  O84  1  0.26439000  0.07602600  0.99182500  1
  O  O85  1  0.96304200  0.86015300  0.67990500  1
  O  O86  1  0.54437300  0.46098500  0.89532400  1
  O  O87  1  0.76439000  0.92397400  0.50817500  1
