# generated using pymatgen
data_Sb2SNF11
_symmetry_space_group_name_H-M   'P 1'
_cell_length_a   12.05195500
_cell_length_b   8.30907300
_cell_length_c   10.47766784
_cell_angle_alpha   87.41186388
_cell_angle_beta   90.00000000
_cell_angle_gamma   90.00000000
_symmetry_Int_Tables_number   1
_chemical_formula_structural   Sb2SNF11
_chemical_formula_sum   'Sb8 S4 N4 F44'
_cell_volume   1048.16938407
_cell_formula_units_Z   4
loop_
 _symmetry_equiv_pos_site_id
 _symmetry_equiv_pos_as_xyz
  1  'x, y, z'
loop_
 _atom_site_type_symbol
 _atom_site_label
 _atom_site_symmetry_multiplicity
 _atom_site_fract_x
 _atom_site_fract_y
 _atom_site_fract_z
 _atom_site_occupancy
  Sb  Sb0  1  0.22230800  0.82216500  0.95820400  1
  Sb  Sb1  1  0.27769200  0.82216500  0.45820400  1
  Sb  Sb2  1  0.77769200  0.17783500  0.04179600  1
  Sb  Sb3  1  0.55045900  0.68118600  0.27352900  1
  Sb  Sb4  1  0.44954100  0.31881400  0.72647100  1
  Sb  Sb5  1  0.94954100  0.68118600  0.77352900  1
  Sb  Sb6  1  0.05045900  0.31881400  0.22647100  1
  Sb  Sb7  1  0.72230800  0.17783500  0.54179600  1
  S  S8  1  0.45209700  0.20775700  0.23874600  1
  S  S9  1  0.95209700  0.79224300  0.26125400  1
  S  S10  1  0.04790300  0.20775700  0.73874600  1
  S  S11  1  0.54790300  0.79224300  0.76125400  1
  N  N12  1  0.39342600  0.24884600  0.12308300  1
  N  N13  1  0.89342600  0.75115400  0.37691700  1
  N  N14  1  0.60657400  0.75115400  0.87691700  1
  N  N15  1  0.10657400  0.24884600  0.62308300  1
  F  F16  1  0.17490400  0.92807800  0.56209100  1
  F  F17  1  0.11138800  0.71192200  0.83839100  1
  F  F18  1  0.90201900  0.13162200  0.93753400  1
  F  F19  1  0.33147300  0.76996400  0.83403500  1
  F  F20  1  0.09798100  0.86837800  0.06246600  1
  F  F21  1  0.23909500  0.61661400  0.04008900  1
  F  F22  1  0.01678100  0.63200600  0.61665200  1
  F  F23  1  0.90276700  0.72790900  0.94029700  1
  F  F24  1  0.68821800  0.98594000  0.64339400  1
  F  F25  1  0.66852700  0.23003600  0.16596500  1
  F  F26  1  0.88861200  0.28807800  0.16160900  1
  F  F27  1  0.83147300  0.23003600  0.66596500  1
  F  F28  1  0.45457600  0.09377600  0.77411200  1
  F  F29  1  0.97470400  0.46000300  0.83062900  1
  F  F30  1  0.51678100  0.36799400  0.88334800  1
  F  F31  1  0.81178200  0.98594000  0.14339400  1
  F  F32  1  0.47470400  0.53999700  0.66937100  1
  F  F33  1  0.69655400  0.64853100  0.21410800  1
  F  F34  1  0.40201900  0.86837800  0.56246600  1
  F  F35  1  0.31178200  0.01406000  0.35660600  1
  F  F36  1  0.54542400  0.90622400  0.22588800  1
  F  F37  1  0.30344600  0.35146900  0.78589200  1
  F  F38  1  0.19655400  0.35146900  0.28589200  1
  F  F39  1  0.52529600  0.46000300  0.33062900  1
  F  F40  1  0.67490400  0.07192200  0.93790900  1
  F  F41  1  0.61138800  0.28807800  0.66160900  1
  F  F42  1  0.04542400  0.09377600  0.27411200  1
  F  F43  1  0.59723300  0.72790900  0.44029700  1
  F  F44  1  0.32509600  0.92807800  0.06209100  1
  F  F45  1  0.16852700  0.76996400  0.33403500  1
  F  F46  1  0.02529600  0.53999700  0.16937100  1
  F  F47  1  0.38861200  0.71192200  0.33839100  1
  F  F48  1  0.40276700  0.27209100  0.55970300  1
  F  F49  1  0.09723300  0.27209100  0.05970300  1
  F  F50  1  0.18821800  0.01406000  0.85660600  1
  F  F51  1  0.98321900  0.36799400  0.38334800  1
  F  F52  1  0.80344600  0.64853100  0.71410800  1
  F  F53  1  0.73909500  0.38338600  0.45991100  1
  F  F54  1  0.26090500  0.61661400  0.54008900  1
  F  F55  1  0.82509600  0.07192200  0.43790900  1
  F  F56  1  0.48321900  0.63200600  0.11665200  1
  F  F57  1  0.59798100  0.13162200  0.43753400  1
  F  F58  1  0.76090500  0.38338600  0.95991100  1
  F  F59  1  0.95457600  0.90622400  0.72588800  1
