# generated using pymatgen
data_Na2Ca(AsO3)4
_symmetry_space_group_name_H-M   'P 1'
_cell_length_a   10.13124800
_cell_length_b   10.13124800
_cell_length_c   5.23961100
_cell_angle_alpha   90.00000000
_cell_angle_beta   90.00000000
_cell_angle_gamma   90.00000000
_symmetry_Int_Tables_number   1
_chemical_formula_structural   Na2Ca(AsO3)4
_chemical_formula_sum   'Na4 Ca2 As8 O24'
_cell_volume   537.80512703
_cell_formula_units_Z   2
loop_
 _symmetry_equiv_pos_site_id
 _symmetry_equiv_pos_as_xyz
  1  'x, y, z'
loop_
 _atom_site_type_symbol
 _atom_site_label
 _atom_site_symmetry_multiplicity
 _atom_site_fract_x
 _atom_site_fract_y
 _atom_site_fract_z
 _atom_site_occupancy
  Na  Na0  1  0.75000000  0.25000000  0.00000000  1
  Na  Na1  1  0.25000000  0.25000000  0.00000000  1
  Na  Na2  1  0.25000000  0.75000000  0.00000000  1
  Na  Na3  1  0.75000000  0.75000000  0.00000000  1
  Ca  Ca4  1  0.00000000  0.00000000  0.00000000  1
  Ca  Ca5  1  0.50000000  0.50000000  0.00000000  1
  As  As6  1  0.00000000  0.72708000  0.50000000  1
  As  As7  1  0.77292000  0.50000000  0.50000000  1
  As  As8  1  0.50000000  0.77292000  0.50000000  1
  As  As9  1  0.72708000  0.00000000  0.50000000  1
  As  As10  1  0.50000000  0.22708000  0.50000000  1
  As  As11  1  0.00000000  0.27292000  0.50000000  1
  As  As12  1  0.27292000  0.00000000  0.50000000  1
  As  As13  1  0.22708000  0.50000000  0.50000000  1
  O  O14  1  0.88413700  0.61586300  0.34813800  1
  O  O15  1  0.19443800  0.92841700  0.74393100  1
  O  O16  1  0.61586300  0.88413700  0.65186200  1
  O  O17  1  0.69443800  0.57158300  0.74393100  1
  O  O18  1  0.30556200  0.42841700  0.74393100  1
  O  O19  1  0.92841700  0.80556200  0.74393100  1
  O  O20  1  0.61586300  0.11586300  0.34813800  1
  O  O21  1  0.30556200  0.57158300  0.25606900  1
  O  O22  1  0.57158300  0.30556200  0.74393100  1
  O  O23  1  0.07158300  0.80556200  0.25606900  1
  O  O24  1  0.57158300  0.69443800  0.25606900  1
  O  O25  1  0.88413700  0.38413700  0.65186200  1
  O  O26  1  0.92841700  0.19443800  0.25606900  1
  O  O27  1  0.38413700  0.11586300  0.65186200  1
  O  O28  1  0.07158300  0.19443800  0.74393100  1
  O  O29  1  0.42841700  0.30556200  0.25606900  1
  O  O30  1  0.42841700  0.69443800  0.74393100  1
  O  O31  1  0.80556200  0.07158300  0.74393100  1
  O  O32  1  0.11586300  0.61586300  0.65186200  1
  O  O33  1  0.80556200  0.92841700  0.25606900  1
  O  O34  1  0.19443800  0.07158300  0.25606900  1
  O  O35  1  0.11586300  0.38413700  0.34813800  1
  O  O36  1  0.69443800  0.42841700  0.25606900  1
  O  O37  1  0.38413700  0.88413700  0.34813800  1
