# generated using pymatgen
data_Mg3(PO4)2
_symmetry_space_group_name_H-M   'P 1'
_cell_length_a   4.79092100
_cell_length_b   5.98219600
_cell_length_c   10.32981918
_cell_angle_alpha   89.67208090
_cell_angle_beta   90.00000000
_cell_angle_gamma   90.00000000
_symmetry_Int_Tables_number   1
_chemical_formula_structural   Mg3(PO4)2
_chemical_formula_sum   'Mg6 P4 O16'
_cell_volume   296.05012873
_cell_formula_units_Z   2
loop_
 _symmetry_equiv_pos_site_id
 _symmetry_equiv_pos_as_xyz
  1  'x, y, z'
loop_
 _atom_site_type_symbol
 _atom_site_label
 _atom_site_symmetry_multiplicity
 _atom_site_fract_x
 _atom_site_fract_y
 _atom_site_fract_z
 _atom_site_occupancy
  Mg  Mg0  1  0.50857600  0.76153800  0.77783400  1
  Mg  Mg1  1  0.00857600  0.23846200  0.72216600  1
  Mg  Mg2  1  0.99142400  0.76153800  0.27783400  1
  Mg  Mg3  1  0.00000000  0.50000000  0.00000000  1
  Mg  Mg4  1  0.49142400  0.23846200  0.22216600  1
  Mg  Mg5  1  0.50000000  0.50000000  0.50000000  1
  P  P6  1  0.92723800  0.25685400  0.40234100  1
  P  P7  1  0.42723800  0.74314600  0.09765900  1
  P  P8  1  0.07276200  0.74314600  0.59765900  1
  P  P9  1  0.57276200  0.25685400  0.90234100  1
  O  O10  1  0.74733800  0.72296500  0.10465700  1
  O  O11  1  0.68586600  0.25596800  0.04296400  1
  O  O12  1  0.25266200  0.27703500  0.89534300  1
  O  O13  1  0.22841500  0.53322900  0.66142400  1
  O  O14  1  0.81505200  0.06020800  0.32134700  1
  O  O15  1  0.68494800  0.06020800  0.82134700  1
  O  O16  1  0.31505200  0.93979200  0.17865300  1
  O  O17  1  0.31413400  0.74403200  0.95703600  1
  O  O18  1  0.18586600  0.74403200  0.45703600  1
  O  O19  1  0.18494800  0.93979200  0.67865300  1
  O  O20  1  0.27158500  0.53322900  0.16142400  1
  O  O21  1  0.24733800  0.27703500  0.39534300  1
  O  O22  1  0.72841500  0.46677100  0.83857600  1
  O  O23  1  0.77158500  0.46677100  0.33857600  1
  O  O24  1  0.75266200  0.72296500  0.60465700  1
  O  O25  1  0.81413400  0.25596800  0.54296400  1
