# generated using pymatgen
data_SbS(BrF2)3
_symmetry_space_group_name_H-M   'P 1'
_cell_length_a   8.49333400
_cell_length_b   9.57460000
_cell_length_c   12.77931200
_cell_angle_alpha   90.00000000
_cell_angle_beta   90.00000000
_cell_angle_gamma   90.00000000
_symmetry_Int_Tables_number   1
_chemical_formula_structural   SbS(BrF2)3
_chemical_formula_sum   'Sb4 S4 Br12 F24'
_cell_volume   1039.21717531
_cell_formula_units_Z   4
loop_
 _symmetry_equiv_pos_site_id
 _symmetry_equiv_pos_as_xyz
  1  'x, y, z'
loop_
 _atom_site_type_symbol
 _atom_site_label
 _atom_site_symmetry_multiplicity
 _atom_site_fract_x
 _atom_site_fract_y
 _atom_site_fract_z
 _atom_site_occupancy
  Sb  Sb0  1  0.30556600  0.96220100  0.19145400  1
  Sb  Sb1  1  0.69443400  0.46220100  0.30854600  1
  Sb  Sb2  1  0.19443400  0.03779900  0.69145400  1
  Sb  Sb3  1  0.80556600  0.53779900  0.80854600  1
  S  S4  1  0.65530300  0.02629200  0.47927200  1
  S  S5  1  0.34469700  0.52629200  0.02072800  1
  S  S6  1  0.15530300  0.47370800  0.52072800  1
  S  S7  1  0.84469700  0.97370800  0.97927200  1
  Br  Br8  1  0.28270400  0.68111700  0.90216600  1
  Br  Br9  1  0.36274800  0.49786700  0.62105400  1
  Br  Br10  1  0.15040500  0.67011900  0.43370000  1
  Br  Br11  1  0.63725200  0.99786700  0.87894600  1
  Br  Br12  1  0.86274800  0.00213300  0.37894600  1
  Br  Br13  1  0.34959500  0.32988100  0.93370000  1
  Br  Br14  1  0.13725200  0.50213300  0.12105400  1
  Br  Br15  1  0.84959500  0.17011900  0.06630000  1
  Br  Br16  1  0.78270400  0.81888300  0.09783400  1
  Br  Br17  1  0.65040500  0.82988100  0.56630000  1
  Br  Br18  1  0.71729600  0.18111700  0.59783400  1
  Br  Br19  1  0.21729600  0.31888300  0.40216600  1
  F  F20  1  0.56613500  0.45385900  0.18534300  1
  F  F21  1  0.72865000  0.35589000  0.76759500  1
  F  F22  1  0.36716900  0.11908800  0.77036800  1
  F  F23  1  0.62318000  0.27892100  0.34751200  1
  F  F24  1  0.12318000  0.22107900  0.65248800  1
  F  F25  1  0.27135000  0.85589000  0.73240500  1
  F  F26  1  0.43386500  0.95385900  0.31465700  1
  F  F27  1  0.77135000  0.64411000  0.26759500  1
  F  F28  1  0.17194100  0.96614700  0.07010500  1
  F  F29  1  0.86716900  0.38091200  0.22963200  1
  F  F30  1  0.02762800  0.95282600  0.61375300  1
  F  F31  1  0.93386500  0.54614100  0.68534300  1
  F  F32  1  0.52762800  0.54717400  0.38624700  1
  F  F33  1  0.22865000  0.14411000  0.23240500  1
  F  F34  1  0.32805900  0.03385300  0.57010500  1
  F  F35  1  0.87682000  0.72107900  0.84751200  1
  F  F36  1  0.37682000  0.77892100  0.15248800  1
  F  F37  1  0.13283100  0.88091200  0.27036800  1
  F  F38  1  0.82805900  0.46614700  0.42989500  1
  F  F39  1  0.63283100  0.61908800  0.72963200  1
  F  F40  1  0.97237200  0.45282600  0.88624700  1
  F  F41  1  0.67194100  0.53385300  0.92989500  1
  F  F42  1  0.06613500  0.04614100  0.81465700  1
  F  F43  1  0.47237200  0.04717400  0.11375300  1
