# generated using pymatgen
data_ZnS
_symmetry_space_group_name_H-M   'P 1'
_cell_length_a   3.85386699
_cell_length_b   3.85386699
_cell_length_c   50.39060600
_cell_angle_alpha   90.00000000
_cell_angle_beta   90.00000000
_cell_angle_gamma   120.00001697
_symmetry_Int_Tables_number   1
_chemical_formula_structural   ZnS
_chemical_formula_sum   'Zn16 S16'
_cell_volume   648.14709896
_cell_formula_units_Z   16
loop_
 _symmetry_equiv_pos_site_id
 _symmetry_equiv_pos_as_xyz
  1  'x, y, z'
loop_
 _atom_site_type_symbol
 _atom_site_label
 _atom_site_symmetry_multiplicity
 _atom_site_fract_x
 _atom_site_fract_y
 _atom_site_fract_z
 _atom_site_occupancy
  Zn  Zn0  1  0.33333300  0.66666700  0.50000500  1
  Zn  Zn1  1  0.33333300  0.66666700  0.87500700  1
  Zn  Zn2  1  0.66666700  0.33333300  0.18751100  1
  Zn  Zn3  1  0.00000000  0.00000000  0.43749800  1
  Zn  Zn4  1  0.33333300  0.66666700  0.12501300  1
  Zn  Zn5  1  0.66666700  0.33333300  0.00000500  1
  Zn  Zn6  1  0.66666700  0.33333300  0.62501300  1
  Zn  Zn7  1  0.00000000  0.00000000  0.25000400  1
  Zn  Zn8  1  0.00000000  0.00000000  0.93749800  1
  Zn  Zn9  1  0.66666700  0.33333300  0.81250100  1
  Zn  Zn10  1  0.33333300  0.66666700  0.68751100  1
  Zn  Zn11  1  0.00000000  0.00000000  0.75000400  1
  Zn  Zn12  1  0.66666700  0.33333300  0.37500700  1
  Zn  Zn13  1  0.00000000  0.00000000  0.56252700  1
  Zn  Zn14  1  0.33333300  0.66666700  0.31250100  1
  Zn  Zn15  1  0.00000000  0.00000000  0.06252700  1
  S  S16  1  0.66666700  0.33333300  0.04691000  1
  S  S17  1  0.00000000  0.00000000  0.10936600  1
  S  S18  1  0.33333300  0.66666700  0.35936500  1
  S  S19  1  0.66666700  0.33333300  0.42186000  1
  S  S20  1  0.66666700  0.33333300  0.67186700  1
  S  S21  1  0.33333300  0.66666700  0.54691000  1
  S  S22  1  0.66666700  0.33333300  0.85936500  1
  S  S23  1  0.00000000  0.00000000  0.48432000  1
  S  S24  1  0.00000000  0.00000000  0.98432000  1
  S  S25  1  0.00000000  0.00000000  0.79685400  1
  S  S26  1  0.33333300  0.66666700  0.73435200  1
  S  S27  1  0.00000000  0.00000000  0.29685400  1
  S  S28  1  0.33333300  0.66666700  0.92186000  1
  S  S29  1  0.00000000  0.00000000  0.60936600  1
  S  S30  1  0.33333300  0.66666700  0.17186700  1
  S  S31  1  0.66666700  0.33333300  0.23435200  1
