# generated using pymatgen
data_SiO2
_symmetry_space_group_name_H-M   'P 1'
_cell_length_a   8.56299400
_cell_length_b   12.58035600
_cell_length_c   15.23153398
_cell_angle_alpha   74.07655881
_cell_angle_beta   90.00000000
_cell_angle_gamma   90.00000000
_symmetry_Int_Tables_number   1
_chemical_formula_structural   SiO2
_chemical_formula_sum   'Si28 O56'
_cell_volume   1577.86496024
_cell_formula_units_Z   28
loop_
 _symmetry_equiv_pos_site_id
 _symmetry_equiv_pos_as_xyz
  1  'x, y, z'
loop_
 _atom_site_type_symbol
 _atom_site_label
 _atom_site_symmetry_multiplicity
 _atom_site_fract_x
 _atom_site_fract_y
 _atom_site_fract_z
 _atom_site_occupancy
  Si  Si0  1  0.81613900  0.88325300  0.21837100  1
  Si  Si1  1  0.68545500  0.09532100  0.59490600  1
  Si  Si2  1  0.18386100  0.88325300  0.21837100  1
  Si  Si3  1  0.31454500  0.09532100  0.59490600  1
  Si  Si4  1  0.18439800  0.85957600  0.89032100  1
  Si  Si5  1  0.81301500  0.51253800  0.09824600  1
  Si  Si6  1  0.68552800  0.24661300  0.91309500  1
  Si  Si7  1  0.81560200  0.14042400  0.10967900  1
  Si  Si8  1  0.31715500  0.70678000  0.77241500  1
  Si  Si9  1  0.31454500  0.90467900  0.40509400  1
  Si  Si10  1  0.31447200  0.75338700  0.08690500  1
  Si  Si11  1  0.18698500  0.51253800  0.09824600  1
  Si  Si12  1  0.68284500  0.29322000  0.22758500  1
  Si  Si13  1  0.18386100  0.11674700  0.78162900  1
  Si  Si14  1  0.81679000  0.86159500  0.59775900  1
  Si  Si15  1  0.18321000  0.86159500  0.59775900  1
  Si  Si16  1  0.81560200  0.85957600  0.89032100  1
  Si  Si17  1  0.18321000  0.13840500  0.40224100  1
  Si  Si18  1  0.31715500  0.29322000  0.22758500  1
  Si  Si19  1  0.81301500  0.48746200  0.90175400  1
  Si  Si20  1  0.18698500  0.48746200  0.90175400  1
  Si  Si21  1  0.68552800  0.75338700  0.08690500  1
  Si  Si22  1  0.68545500  0.90467900  0.40509400  1
  Si  Si23  1  0.68284500  0.70678000  0.77241500  1
  Si  Si24  1  0.81613900  0.11674700  0.78162900  1
  Si  Si25  1  0.18439800  0.14042400  0.10967900  1
  Si  Si26  1  0.31447200  0.24661300  0.91309500  1
  Si  Si27  1  0.81679000  0.13840500  0.40224100  1
  O  O28  1  0.77161600  0.63437100  0.10750400  1
  O  O29  1  0.24142000  0.83825800  0.99541100  1
  O  O30  1  0.27321900  0.42141800  0.18001400  1
  O  O31  1  0.22838400  0.36562900  0.89249600  1
  O  O32  1  0.76084700  0.13861000  0.67631200  1
  O  O33  1  0.22838400  0.63437100  0.10750400  1
  O  O34  1  0.00000000  0.82871700  0.88739700  1
  O  O35  1  0.71389300  0.19591000  0.82733000  1
  O  O36  1  0.71389300  0.80409000  0.17267000  1
  O  O37  1  0.00000000  0.49261900  0.10682800  1
  O  O38  1  0.23915300  0.86139000  0.32368800  1
  O  O39  1  0.78622500  0.98821000  0.83694300  1
  O  O40  1  0.00000000  0.17128300  0.11260300  1
  O  O41  1  0.50000000  0.71587800  0.74416700  1
  O  O42  1  0.28610700  0.19591000  0.82733000  1
  O  O43  1  0.21348000  0.24968800  0.32008900  1
  O  O44  1  0.72678100  0.42141800  0.18001400  1
  O  O45  1  0.75227800  0.50000000  0.00000000  1
  O  O46  1  0.21348000  0.75031200  0.67991100  1
  O  O47  1  0.72678100  0.57858200  0.81998600  1
  O  O48  1  0.71551800  0.21869400  0.15746600  1
  O  O49  1  0.77038600  0.16043700  0.49947200  1
  O  O50  1  0.78652000  0.24968800  0.32008900  1
  O  O51  1  0.22961400  0.16043700  0.49947200  1
  O  O52  1  0.71551800  0.78130600  0.84253400  1
  O  O53  1  0.28448200  0.78130600  0.84253400  1
  O  O54  1  0.50000000  0.12171300  0.58769300  1
  O  O55  1  0.75858000  0.83825800  0.99541100  1
  O  O56  1  0.24772200  0.50000000  0.00000000  1
  O  O57  1  0.50000000  0.73786600  0.07334200  1
  O  O58  1  0.50000000  0.26213400  0.92665800  1
  O  O59  1  0.28610700  0.80409000  0.17267000  1
  O  O60  1  0.28869400  0.03791700  0.38512300  1
  O  O61  1  0.28869400  0.96208300  0.61487700  1
  O  O62  1  0.24142000  0.16174200  0.00458900  1
  O  O63  1  0.00000000  0.85248900  0.21518400  1
  O  O64  1  0.77161600  0.36562900  0.89249600  1
  O  O65  1  0.27321900  0.57858200  0.81998600  1
  O  O66  1  0.00000000  0.89626300  0.59705300  1
  O  O67  1  0.75858000  0.16174200  0.00458900  1
  O  O68  1  0.00000000  0.14751100  0.78481600  1
  O  O69  1  0.78652000  0.75031200  0.67991100  1
  O  O70  1  0.71130600  0.96208300  0.61487700  1
  O  O71  1  0.23915300  0.13861000  0.67631200  1
  O  O72  1  0.78622500  0.01179000  0.16305700  1
  O  O73  1  0.21377500  0.01179000  0.16305700  1
  O  O74  1  0.71130600  0.03791700  0.38512300  1
  O  O75  1  0.50000000  0.28412200  0.25583300  1
  O  O76  1  0.00000000  0.10373700  0.40294700  1
  O  O77  1  0.50000000  0.87828700  0.41230700  1
  O  O78  1  0.22961400  0.83956300  0.50052800  1
  O  O79  1  0.21377500  0.98821000  0.83694300  1
  O  O80  1  0.00000000  0.50738100  0.89317200  1
  O  O81  1  0.28448200  0.21869400  0.15746600  1
  O  O82  1  0.77038600  0.83956300  0.50052800  1
  O  O83  1  0.76084700  0.86139000  0.32368800  1
