# generated using pymatgen
data_Ba2Ti9O20
_symmetry_space_group_name_H-M   'P 1'
_cell_length_a   7.54871700
_cell_length_b   14.28853137
_cell_length_c   14.51507784
_cell_angle_alpha   89.89245200
_cell_angle_beta   100.43695451
_cell_angle_gamma   95.41771211
_symmetry_Int_Tables_number   1
_chemical_formula_structural   Ba2Ti9O20
_chemical_formula_sum   'Ba8 Ti36 O80'
_cell_volume   1532.63091302
_cell_formula_units_Z   4
loop_
 _symmetry_equiv_pos_site_id
 _symmetry_equiv_pos_as_xyz
  1  'x, y, z'
loop_
 _atom_site_type_symbol
 _atom_site_label
 _atom_site_symmetry_multiplicity
 _atom_site_fract_x
 _atom_site_fract_y
 _atom_site_fract_z
 _atom_site_occupancy
  Ba  Ba0  1  0.49033300  0.75154100  0.72645200  1
  Ba  Ba1  1  0.76146500  0.43986000  0.07610000  1
  Ba  Ba2  1  0.25085900  0.06162000  0.02254600  1
  Ba  Ba3  1  0.74914100  0.93838000  0.97745400  1
  Ba  Ba4  1  0.50632000  0.75035800  0.37190500  1
  Ba  Ba5  1  0.50966700  0.24845900  0.27354800  1
  Ba  Ba6  1  0.23853500  0.56014000  0.92390000  1
  Ba  Ba7  1  0.49368000  0.24964200  0.62809500  1
  Ti  Ti8  1  0.31705600  0.99884900  0.31955500  1
  Ti  Ti9  1  0.95198100  0.83641700  0.81014300  1
  Ti  Ti10  1  0.67869400  0.51032500  0.56579900  1
  Ti  Ti11  1  0.98397100  0.34235700  0.28777000  1
  Ti  Ti12  1  0.68986800  0.49808500  0.35401300  1
  Ti  Ti13  1  0.01602900  0.65764300  0.71223000  1
  Ti  Ti14  1  0.33622700  0.83749900  0.13673400  1
  Ti  Ti15  1  0.69871600  0.67122300  0.94994200  1
  Ti  Ti16  1  0.05041500  0.66236900  0.50858300  1
  Ti  Ti17  1  0.32199100  0.50111800  0.21668500  1
  Ti  Ti18  1  0.68294400  0.00115100  0.68044500  1
  Ti  Ti19  1  0.32034200  0.99222600  0.53362600  1
  Ti  Ti20  1  0.32130600  0.48967500  0.43420100  1
  Ti  Ti21  1  0.04801900  0.16358300  0.18985700  1
  Ti  Ti22  1  0.33174700  0.33185100  0.83702800  1
  Ti  Ti23  1  0.68371500  0.01234800  0.24685100  1
  Ti  Ti24  1  0.67965800  0.00777400  0.46637400  1
  Ti  Ti25  1  0.95500500  0.84425800  0.59987900  1
  Ti  Ti26  1  0.05532500  0.66690900  0.09679800  1
  Ti  Ti27  1  0.31013200  0.50191500  0.64598700  1
  Ti  Ti28  1  0.04361800  0.65315900  0.30465600  1
  Ti  Ti29  1  0.96173100  0.84464900  0.39455100  1
  Ti  Ti30  1  0.04499500  0.15574200  0.40012100  1
  Ti  Ti31  1  0.94958500  0.33763100  0.49141700  1
  Ti  Ti32  1  0.96400200  0.84871000  0.18924800  1
  Ti  Ti33  1  0.67800900  0.49888200  0.78331500  1
  Ti  Ti34  1  0.66377300  0.16250100  0.86326600  1
  Ti  Ti35  1  0.03826900  0.15535100  0.60544900  1
  Ti  Ti36  1  0.03599800  0.15129000  0.81075200  1
  Ti  Ti37  1  0.30203200  0.81922700  0.92945600  1
  Ti  Ti38  1  0.94467500  0.33309100  0.90320200  1
  Ti  Ti39  1  0.95638200  0.34684100  0.69534400  1
  Ti  Ti40  1  0.31628500  0.98765200  0.75314900  1
  Ti  Ti41  1  0.30128400  0.32877700  0.05005800  1
  Ti  Ti42  1  0.69796800  0.18077300  0.07054400  1
  Ti  Ti43  1  0.66825300  0.66814900  0.16297200  1
  O  O44  1  0.83290600  0.75380400  0.09213500  1
  O  O45  1  0.84118400  0.25069100  0.78822300  1
  O  O46  1  0.43985100  0.92544800  0.24144400  1
  O  O47  1  0.50827900  0.75344300  0.17993900  1
  O  O48  1  0.20012200  0.23622000  0.12146600  1
  O  O49  1  0.90324500  0.59076400  0.38681700  1
  O  O50  1  0.41757900  0.39318400  0.94649600  1
  O  O51  1  0.90993500  0.60604400  0.99354100  1
  O  O52  1  0.09733900  0.90729800  0.70842700  1
  O  O53  1  0.75497200  0.41798700  0.67623900  1
  O  O54  1  0.76954800  0.42649300  0.47599400  1
  O  O55  1  0.14807200  0.24131200  0.31502600  1
  O  O56  1  0.43146400  0.93105800  0.44314100  1
  O  O57  1  0.79987800  0.76378000  0.87853400  1
  O  O58  1  0.24502800  0.58201300  0.32376100  1
  O  O59  1  0.85999900  0.76368400  0.48510500  1
  O  O60  1  0.11339300  0.90656200  0.11713600  1
  O  O61  1  0.43001800  0.93251100  0.64806700  1
  O  O62  1  0.10324800  0.90722700  0.51109500  1
  O  O63  1  0.51886900  0.25849800  0.07139800  1
  O  O64  1  0.58242100  0.60681600  0.05350400  1
  O  O65  1  0.09006500  0.39395600  0.00645900  1
  O  O66  1  0.23045200  0.57350700  0.52400600  1
  O  O67  1  0.09670500  0.39670100  0.81026200  1
  O  O68  1  0.20002400  0.74784400  0.03002600  1
  O  O69  1  0.59024100  0.09268300  0.15739300  1
  O  O70  1  0.91020700  0.10058900  0.09078500  1
  O  O71  1  0.42801800  0.42969700  0.54250800  1
  O  O72  1  0.21990800  0.07311300  0.82232700  1
  O  O73  1  0.10519500  0.40687200  0.41040700  1
  O  O74  1  0.48113100  0.74150200  0.92860200  1
  O  O75  1  0.79997600  0.25215600  0.96997400  1
  O  O76  1  0.08979300  0.89941100  0.90921500  1
  O  O77  1  0.13985000  0.24045500  0.71355400  1
  O  O78  1  0.58753500  0.58504700  0.85819300  1
  O  O79  1  0.90266100  0.09270200  0.29157300  1
  O  O80  1  0.55972200  0.56526000  0.66000900  1
  O  O81  1  0.78009200  0.92688700  0.17767300  1
  O  O82  1  0.41246500  0.41495300  0.14180700  1
  O  O83  1  0.57799200  0.10323200  0.96256900  1
  O  O84  1  0.90329500  0.60329900  0.18973800  1
  O  O85  1  0.56853600  0.06894200  0.55685900  1
  O  O86  1  0.57611900  0.57723400  0.25295600  1
  O  O87  1  0.89480500  0.59312800  0.58959300  1
  O  O88  1  0.42388100  0.42276600  0.74704400  1
  O  O89  1  0.56998200  0.06748900  0.35193300  1
  O  O90  1  0.86015000  0.75954500  0.28644600  1
  O  O91  1  0.77800400  0.42243100  0.87642800  1
  O  O92  1  0.89675200  0.09277300  0.48890500  1
  O  O93  1  0.76211200  0.91574200  0.76810800  1
  O  O94  1  0.15881600  0.74930900  0.21177700  1
  O  O95  1  0.85192800  0.75868800  0.68497400  1
  O  O96  1  0.49172100  0.24655700  0.82006100  1
  O  O97  1  0.88660700  0.09343800  0.88286400  1
  O  O98  1  0.10590800  0.42151900  0.21937900  1
  O  O99  1  0.14071300  0.74310400  0.81909600  1
  O  O100  1  0.14952100  0.73535900  0.41418900  1
  O  O101  1  0.40975900  0.90731700  0.84260700  1
  O  O102  1  0.89360600  0.09176700  0.68887900  1
  O  O103  1  0.09675500  0.40923600  0.61318300  1
  O  O104  1  0.16709400  0.24619600  0.90786500  1
  O  O105  1  0.23788800  0.08425800  0.23189200  1
  O  O106  1  0.56014900  0.07455200  0.75855600  1
  O  O107  1  0.42200800  0.89676800  0.03743100  1
  O  O108  1  0.23427600  0.07517600  0.42376200  1
  O  O109  1  0.44027800  0.43474000  0.33999100  1
  O  O110  1  0.89409200  0.57848100  0.78062100  1
  O  O111  1  0.85873600  0.26200100  0.38644500  1
  O  O112  1  0.57198200  0.57030300  0.45749200  1
  O  O113  1  0.22952000  0.07919800  0.62020100  1
  O  O114  1  0.22199600  0.57756900  0.12357200  1
  O  O115  1  0.76572400  0.92482400  0.57623800  1
  O  O116  1  0.77048000  0.92080200  0.37979900  1
  O  O117  1  0.85928700  0.25689600  0.18090400  1
  O  O118  1  0.14000100  0.23631600  0.51489500  1
  O  O119  1  0.85047900  0.26464100  0.58581100  1
  O  O120  1  0.22978000  0.58788500  0.71883100  1
  O  O121  1  0.77022000  0.41211500  0.28116900  1
  O  O122  1  0.14126400  0.73799900  0.61355500  1
  O  O123  1  0.10639400  0.90823300  0.31112100  1
