# generated using pymatgen
data_Mg2B2O5
_symmetry_space_group_name_H-M   'P 1'
_cell_length_a   3.15678800
_cell_length_b   9.31891500
_cell_length_c   12.48226165
_cell_angle_alpha   74.91696011
_cell_angle_beta   90.00000000
_cell_angle_gamma   90.00000000
_symmetry_Int_Tables_number   1
_chemical_formula_structural   Mg2B2O5
_chemical_formula_sum   'Mg8 B8 O20'
_cell_volume   354.55097412
_cell_formula_units_Z   4
loop_
 _symmetry_equiv_pos_site_id
 _symmetry_equiv_pos_as_xyz
  1  'x, y, z'
loop_
 _atom_site_type_symbol
 _atom_site_label
 _atom_site_symmetry_multiplicity
 _atom_site_fract_x
 _atom_site_fract_y
 _atom_site_fract_z
 _atom_site_occupancy
  Mg  Mg0  1  0.21623900  0.85404300  0.64415500  1
  Mg  Mg1  1  0.78376100  0.14595700  0.35584500  1
  Mg  Mg2  1  0.28376100  0.85404300  0.14415500  1
  Mg  Mg3  1  0.75173200  0.60239200  0.56310500  1
  Mg  Mg4  1  0.24826800  0.39760800  0.43689500  1
  Mg  Mg5  1  0.74826800  0.60239200  0.06310500  1
  Mg  Mg6  1  0.71623900  0.14595700  0.85584500  1
  Mg  Mg7  1  0.25173200  0.39760800  0.93689500  1
  B  B8  1  0.18054400  0.85674700  0.90895000  1
  B  B9  1  0.31945600  0.85674700  0.40895000  1
  B  B10  1  0.81945600  0.14325300  0.09105000  1
  B  B11  1  0.17010700  0.33144300  0.19016300  1
  B  B12  1  0.82989300  0.66855700  0.80983700  1
  B  B13  1  0.67010700  0.66855700  0.30983700  1
  B  B14  1  0.32989300  0.33144300  0.69016300  1
  B  B15  1  0.68054400  0.14325300  0.59105000  1
  O  O16  1  0.72632400  0.67928200  0.70201300  1
  O  O17  1  0.44150500  0.79774500  0.31894700  1
  O  O18  1  0.77367600  0.67928200  0.20201300  1
  O  O19  1  0.05849500  0.79774500  0.81894700  1
  O  O20  1  0.71639300  0.99421500  0.61260700  1
  O  O21  1  0.25040200  0.44554900  0.59812400  1
  O  O22  1  0.21639300  0.00578500  0.88739300  1
  O  O23  1  0.25007900  0.75888500  0.51100000  1
  O  O24  1  0.27367600  0.32071800  0.29798700  1
  O  O25  1  0.78360700  0.99421500  0.11260700  1
  O  O26  1  0.55849500  0.20225500  0.68105300  1
  O  O27  1  0.24992100  0.75888500  0.01100000  1
  O  O28  1  0.74959800  0.55445100  0.40187600  1
  O  O29  1  0.94150500  0.20225500  0.18105300  1
  O  O30  1  0.24959800  0.44554900  0.09812400  1
  O  O31  1  0.75007900  0.24111500  0.98900000  1
  O  O32  1  0.75040200  0.55445100  0.90187600  1
  O  O33  1  0.22632400  0.32071800  0.79798700  1
  O  O34  1  0.28360700  0.00578500  0.38739300  1
  O  O35  1  0.74992100  0.24111500  0.48900000  1
