# generated using pymatgen
data_AlPO4
_symmetry_space_group_name_H-M   'P 1'
_cell_length_a   18.90773849
_cell_length_b   18.90773849
_cell_length_c   8.69464100
_cell_angle_alpha   90.00000000
_cell_angle_beta   90.00000000
_cell_angle_gamma   120.00000171
_symmetry_Int_Tables_number   1
_chemical_formula_structural   AlPO4
_chemical_formula_sum   'Al18 P18 O72'
_cell_volume   2691.91568475
_cell_formula_units_Z   18
loop_
 _symmetry_equiv_pos_site_id
 _symmetry_equiv_pos_as_xyz
  1  'x, y, z'
loop_
 _atom_site_type_symbol
 _atom_site_label
 _atom_site_symmetry_multiplicity
 _atom_site_fract_x
 _atom_site_fract_y
 _atom_site_fract_z
 _atom_site_occupancy
  Al  Al0  1  0.58727000  0.00000000  0.68528000  1
  Al  Al1  1  0.33867800  0.50896900  0.17160900  1
  Al  Al2  1  0.00000000  0.41273000  0.18528000  1
  Al  Al3  1  0.50896900  0.33867800  0.17160900  1
  Al  Al4  1  0.41273000  0.41273000  0.68528000  1
  Al  Al5  1  0.17029100  0.50896900  0.67160900  1
  Al  Al6  1  0.66132200  0.49103100  0.67160900  1
  Al  Al7  1  0.50896900  0.17029100  0.67160900  1
  Al  Al8  1  0.00000000  0.58727000  0.68528000  1
  Al  Al9  1  0.82970900  0.49103100  0.17160900  1
  Al  Al10  1  0.58727000  0.58727000  0.18528000  1
  Al  Al11  1  0.33867800  0.82970900  0.67160900  1
  Al  Al12  1  0.17029100  0.66132200  0.17160900  1
  Al  Al13  1  0.49103100  0.66132200  0.67160900  1
  Al  Al14  1  0.41273000  0.00000000  0.18528000  1
  Al  Al15  1  0.82970900  0.33867800  0.67160900  1
  Al  Al16  1  0.49103100  0.82970900  0.17160900  1
  Al  Al17  1  0.66132200  0.17029100  0.17160900  1
  P  P18  1  0.50047500  0.17394300  0.29703100  1
  P  P19  1  0.17394300  0.50047500  0.29703100  1
  P  P20  1  0.00000000  0.57473600  0.31082700  1
  P  P21  1  0.82605700  0.32653200  0.29703100  1
  P  P22  1  0.00000000  0.42526400  0.81082700  1
  P  P23  1  0.32653200  0.82605700  0.29703100  1
  P  P24  1  0.49952500  0.67346800  0.29703100  1
  P  P25  1  0.57473600  0.00000000  0.31082700  1
  P  P26  1  0.50047500  0.32653200  0.79703100  1
  P  P27  1  0.17394300  0.67346800  0.79703100  1
  P  P28  1  0.42526400  0.00000000  0.81082700  1
  P  P29  1  0.67346800  0.49952500  0.29703100  1
  P  P30  1  0.67346800  0.17394300  0.79703100  1
  P  P31  1  0.42526400  0.42526400  0.31082700  1
  P  P32  1  0.82605700  0.49952500  0.79703100  1
  P  P33  1  0.32653200  0.50047500  0.79703100  1
  P  P34  1  0.57473600  0.57473600  0.81082700  1
  P  P35  1  0.49952500  0.82605700  0.79703100  1
  O  O36  1  0.57057400  0.64717100  0.74056500  1
  O  O37  1  0.50484400  0.50484400  0.27627000  1
  O  O38  1  0.24447400  0.75336000  0.24968200  1
  O  O39  1  0.50888600  0.75552600  0.24968200  1
  O  O40  1  0.92340300  0.35282900  0.74056500  1
  O  O41  1  0.57844500  0.18290200  0.22230600  1
  O  O42  1  0.32939800  0.42375000  0.74385400  1
  O  O43  1  0.50484400  0.00000000  0.77627000  1
  O  O44  1  0.42375000  0.09435200  0.24385400  1
  O  O45  1  0.35282900  0.92340300  0.74056500  1
  O  O46  1  0.90564800  0.57625000  0.74385400  1
  O  O47  1  0.49206900  0.82688900  0.97207300  1
  O  O48  1  0.18290200  0.60445700  0.72230600  1
  O  O49  1  0.42942600  0.35282900  0.24056500  1
  O  O50  1  0.57057400  0.92340300  0.24056500  1
  O  O51  1  0.41491400  0.41491400  0.48538600  1
  O  O52  1  0.24664000  0.75552600  0.74968200  1
  O  O53  1  0.75552600  0.24664000  0.74968200  1
  O  O54  1  0.35282900  0.42942600  0.24056500  1
  O  O55  1  0.42155500  0.81709800  0.72230600  1
  O  O56  1  0.09435200  0.42375000  0.24385400  1
  O  O57  1  0.50793100  0.17311100  0.47207300  1
  O  O58  1  0.90564800  0.32939800  0.24385400  1
  O  O59  1  0.07659700  0.42942600  0.74056500  1
  O  O60  1  0.42375000  0.32939800  0.74385400  1
  O  O61  1  0.66518000  0.17311100  0.97207300  1
  O  O62  1  0.82688900  0.49206900  0.97207300  1
  O  O63  1  0.58508600  0.00000000  0.48538600  1
  O  O64  1  0.57844500  0.39554300  0.72230600  1
  O  O65  1  0.41491400  0.00000000  0.98538600  1
  O  O66  1  0.92340300  0.57057400  0.24056500  1
  O  O67  1  0.60445700  0.42155500  0.22230600  1
  O  O68  1  0.81709800  0.39554300  0.22230600  1
  O  O69  1  0.49111400  0.24447400  0.74968200  1
  O  O70  1  0.33482000  0.50793100  0.97207300  1
  O  O71  1  0.00000000  0.41491400  0.98538600  1
  O  O72  1  0.39554300  0.81709800  0.22230600  1
  O  O73  1  0.33482000  0.82688900  0.47207300  1
  O  O74  1  0.60445700  0.18290200  0.72230600  1
  O  O75  1  0.50888600  0.75336000  0.74968200  1
  O  O76  1  0.81709800  0.42155500  0.72230600  1
  O  O77  1  0.49515600  0.49515600  0.77627000  1
  O  O78  1  0.67060200  0.09435200  0.74385400  1
  O  O79  1  0.50793100  0.33482000  0.97207300  1
  O  O80  1  0.24447400  0.49111400  0.74968200  1
  O  O81  1  0.17311100  0.50793100  0.47207300  1
  O  O82  1  0.75336000  0.24447400  0.24968200  1
  O  O83  1  0.09435200  0.67060200  0.74385400  1
  O  O84  1  0.57625000  0.67060200  0.24385400  1
  O  O85  1  0.49515600  0.00000000  0.27627000  1
  O  O86  1  0.07659700  0.64717100  0.24056500  1
  O  O87  1  0.42942600  0.07659700  0.74056500  1
  O  O88  1  0.49111400  0.24664000  0.24968200  1
  O  O89  1  0.00000000  0.50484400  0.77627000  1
  O  O90  1  0.64717100  0.57057400  0.74056500  1
  O  O91  1  0.49206900  0.66518000  0.47207300  1
  O  O92  1  0.18290200  0.57844500  0.22230600  1
  O  O93  1  0.66518000  0.49206900  0.47207300  1
  O  O94  1  0.82688900  0.33482000  0.47207300  1
  O  O95  1  0.32939800  0.90564800  0.24385400  1
  O  O96  1  0.17311100  0.66518000  0.97207300  1
  O  O97  1  0.24664000  0.49111400  0.24968200  1
  O  O98  1  0.42155500  0.60445700  0.22230600  1
  O  O99  1  0.00000000  0.49515600  0.27627000  1
  O  O100  1  0.57625000  0.90564800  0.74385400  1
  O  O101  1  0.00000000  0.58508600  0.48538600  1
  O  O102  1  0.64717100  0.07659700  0.24056500  1
  O  O103  1  0.39554300  0.57844500  0.72230600  1
  O  O104  1  0.58508600  0.58508600  0.98538600  1
  O  O105  1  0.75552600  0.50888600  0.24968200  1
  O  O106  1  0.67060200  0.57625000  0.24385400  1
  O  O107  1  0.75336000  0.50888600  0.74968200  1
