# generated using pymatgen
data_SiO2
_symmetry_space_group_name_H-M   'P 1'
_cell_length_a   11.39499304
_cell_length_b   11.39499304
_cell_length_c   5.28467900
_cell_angle_alpha   90.00000000
_cell_angle_beta   90.00000000
_cell_angle_gamma   103.66932015
_symmetry_Int_Tables_number   1
_chemical_formula_structural   SiO2
_chemical_formula_sum   'Si12 O24'
_cell_volume   666.75783399
_cell_formula_units_Z   12
loop_
 _symmetry_equiv_pos_site_id
 _symmetry_equiv_pos_as_xyz
  1  'x, y, z'
loop_
 _atom_site_type_symbol
 _atom_site_label
 _atom_site_symmetry_multiplicity
 _atom_site_fract_x
 _atom_site_fract_y
 _atom_site_fract_z
 _atom_site_occupancy
  Si  Si0  1  0.24530500  0.34083000  0.75000000  1
  Si  Si1  1  0.34083000  0.24530500  0.25000000  1
  Si  Si2  1  0.58272400  0.00559100  0.75000000  1
  Si  Si3  1  0.72332000  0.27668000  0.75000000  1
  Si  Si4  1  0.38142200  0.61857800  0.75000000  1
  Si  Si5  1  0.27668000  0.72332000  0.25000000  1
  Si  Si6  1  0.41727600  0.99440900  0.25000000  1
  Si  Si7  1  0.61857800  0.38142200  0.25000000  1
  Si  Si8  1  0.75469500  0.65917000  0.25000000  1
  Si  Si9  1  0.00559100  0.58272400  0.25000000  1
  Si  Si10  1  0.99440900  0.41727600  0.75000000  1
  Si  Si11  1  0.65917000  0.75469500  0.75000000  1
  O  O12  1  0.73398300  0.73398300  0.00000000  1
  O  O13  1  0.32939100  0.67060900  0.49922600  1
  O  O14  1  0.26601700  0.26601700  0.00000000  1
  O  O15  1  0.47219600  0.34073100  0.25000000  1
  O  O16  1  0.64701800  0.89345500  0.75000000  1
  O  O17  1  0.35298200  0.10654500  0.25000000  1
  O  O18  1  0.31396500  0.86949200  0.25000000  1
  O  O19  1  0.65926900  0.52780400  0.25000000  1
  O  O20  1  0.10654500  0.35298200  0.75000000  1
  O  O21  1  0.32939100  0.67060900  0.00077400  1
  O  O22  1  0.67060900  0.32939100  0.50077400  1
  O  O23  1  0.00000000  0.50000000  0.50000000  1
  O  O24  1  0.26601700  0.26601700  0.50000000  1
  O  O25  1  0.34073100  0.47219600  0.75000000  1
  O  O26  1  0.89345500  0.64701800  0.25000000  1
  O  O27  1  0.00000000  0.50000000  0.00000000  1
  O  O28  1  0.52780400  0.65926900  0.75000000  1
  O  O29  1  0.68603500  0.13050800  0.75000000  1
  O  O30  1  0.73398300  0.73398300  0.50000000  1
  O  O31  1  0.50000000  0.00000000  0.00000000  1
  O  O32  1  0.67060900  0.32939100  0.99922600  1
  O  O33  1  0.86949200  0.31396500  0.75000000  1
  O  O34  1  0.13050800  0.68603500  0.25000000  1
  O  O35  1  0.50000000  0.00000000  0.50000000  1
