# generated using pymatgen
data_K4Mn(AsS4)2
_symmetry_space_group_name_H-M   'P 1'
_cell_length_a   8.73125600
_cell_length_b   9.36261200
_cell_length_c   21.91059761
_cell_angle_alpha   70.47946697
_cell_angle_beta   90.00000000
_cell_angle_gamma   90.00000000
_symmetry_Int_Tables_number   1
_chemical_formula_structural   K4Mn(AsS4)2
_chemical_formula_sum   'K16 Mn4 As8 S32'
_cell_volume   1688.18243424
_cell_formula_units_Z   4
loop_
 _symmetry_equiv_pos_site_id
 _symmetry_equiv_pos_as_xyz
  1  'x, y, z'
loop_
 _atom_site_type_symbol
 _atom_site_label
 _atom_site_symmetry_multiplicity
 _atom_site_fract_x
 _atom_site_fract_y
 _atom_site_fract_z
 _atom_site_occupancy
  K  K0  1  0.88077300  0.50000000  0.25000000  1
  K  K1  1  0.61377900  0.02627900  0.36494300  1
  K  K2  1  0.89514100  0.79744600  0.83466200  1
  K  K3  1  0.88408000  0.77047600  0.01659500  1
  K  K4  1  0.59172900  0.50000000  0.75000000  1
  K  K5  1  0.11922700  0.50000000  0.75000000  1
  K  K6  1  0.10485900  0.20255400  0.16533800  1
  K  K7  1  0.61377900  0.97372100  0.13505700  1
  K  K8  1  0.88408000  0.22952400  0.48340500  1
  K  K9  1  0.11592000  0.22952400  0.98340500  1
  K  K10  1  0.40827100  0.50000000  0.25000000  1
  K  K11  1  0.10485900  0.79744600  0.33466200  1
  K  K12  1  0.38622100  0.97372100  0.63505700  1
  K  K13  1  0.38622100  0.02627900  0.86494300  1
  K  K14  1  0.11592000  0.77047600  0.51659500  1
  K  K15  1  0.89514100  0.20255400  0.66533800  1
  Mn  Mn16  1  0.37081400  0.62664700  0.04220200  1
  Mn  Mn17  1  0.62918600  0.62664700  0.54220200  1
  Mn  Mn18  1  0.37081400  0.37335300  0.45779800  1
  Mn  Mn19  1  0.62918600  0.37335300  0.95779800  1
  As  As20  1  0.66399800  0.38466000  0.11175400  1
  As  As21  1  0.19212400  0.17547700  0.37542900  1
  As  As22  1  0.19212400  0.82452300  0.12457100  1
  As  As23  1  0.66399800  0.61534000  0.38824600  1
  As  As24  1  0.80787600  0.17547700  0.87542900  1
  As  As25  1  0.80787600  0.82452300  0.62457100  1
  As  As26  1  0.33600200  0.61534000  0.88824600  1
  As  As27  1  0.33600200  0.38466000  0.61175400  1
  S  S28  1  0.30525500  0.84771200  0.20882000  1
  S  S29  1  0.15271600  0.41546000  0.36797900  1
  S  S30  1  0.34420500  0.09749900  0.46084600  1
  S  S31  1  0.34420500  0.90250100  0.03915400  1
  S  S32  1  0.16641900  0.40491800  0.53541900  1
  S  S33  1  0.26224000  0.22828600  0.70420500  1
  S  S34  1  0.65579500  0.90250100  0.53915400  1
  S  S35  1  0.84728400  0.58454000  0.63202100  1
  S  S36  1  0.15271600  0.58454000  0.13202100  1
  S  S37  1  0.16641900  0.59508200  0.96458100  1
  S  S38  1  0.45354300  0.67622300  0.43067900  1
  S  S39  1  0.73776000  0.77171400  0.29579500  1
  S  S40  1  0.54645700  0.32377700  0.56932100  1
  S  S41  1  0.26224000  0.77171400  0.79579500  1
  S  S42  1  0.60624600  0.61003000  0.11611000  1
  S  S43  1  0.69474500  0.84771200  0.70882000  1
  S  S44  1  0.84728400  0.41546000  0.86797900  1
  S  S45  1  0.01976700  0.04682500  0.89196200  1
  S  S46  1  0.01976700  0.95317500  0.60803800  1
  S  S47  1  0.39375400  0.61003000  0.61611000  1
  S  S48  1  0.65579500  0.09749900  0.96084600  1
  S  S49  1  0.73776000  0.22828600  0.20420500  1
  S  S50  1  0.60624600  0.38997000  0.38389000  1
  S  S51  1  0.83358100  0.40491800  0.03541900  1
  S  S52  1  0.98023300  0.95317500  0.10803800  1
  S  S53  1  0.45354300  0.32377700  0.06932100  1
  S  S54  1  0.39375400  0.38997000  0.88389000  1
  S  S55  1  0.30525500  0.15228800  0.29118000  1
  S  S56  1  0.83358100  0.59508200  0.46458100  1
  S  S57  1  0.69474500  0.15228800  0.79118000  1
  S  S58  1  0.98023300  0.04682500  0.39196200  1
  S  S59  1  0.54645700  0.67622300  0.93067900  1
