# generated using pymatgen
data_CaAl12Si4O27
_symmetry_space_group_name_H-M   'P 1'
_cell_length_a   7.30868039
_cell_length_b   7.30868039
_cell_length_c   8.69798400
_cell_angle_alpha   90.00000000
_cell_angle_beta   90.00000000
_cell_angle_gamma   120.00000354
_symmetry_Int_Tables_number   1
_chemical_formula_structural   CaAl12Si4O27
_chemical_formula_sum   'Ca1 Al12 Si4 O27'
_cell_volume   402.37145349
_cell_formula_units_Z   1
loop_
 _symmetry_equiv_pos_site_id
 _symmetry_equiv_pos_as_xyz
  1  'x, y, z'
loop_
 _atom_site_type_symbol
 _atom_site_label
 _atom_site_symmetry_multiplicity
 _atom_site_fract_x
 _atom_site_fract_y
 _atom_site_fract_z
 _atom_site_occupancy
  Ca  Ca0  1  0.00000000  0.00000000  0.00000000  1
  Al  Al1  1  0.94975200  0.74292100  0.35315300  1
  Al  Al2  1  0.45295600  0.36735700  0.86501800  1
  Al  Al3  1  0.20683100  0.94975200  0.64684700  1
  Al  Al4  1  0.36735700  0.91440100  0.13498200  1
  Al  Al5  1  0.54704400  0.63264300  0.13498200  1
  Al  Al6  1  0.74292100  0.79316900  0.64684700  1
  Al  Al7  1  0.08559900  0.45295600  0.13498200  1
  Al  Al8  1  0.91440100  0.54704400  0.86501800  1
  Al  Al9  1  0.25707900  0.20683100  0.35315300  1
  Al  Al10  1  0.63264300  0.08559900  0.86501800  1
  Al  Al11  1  0.79316900  0.05024800  0.35315300  1
  Al  Al12  1  0.05024800  0.25707900  0.64684700  1
  Si  Si13  1  0.66666700  0.33333300  0.55358000  1
  Si  Si14  1  0.33333300  0.66666700  0.44642000  1
  Si  Si15  1  0.33333300  0.66666700  0.85903100  1
  Si  Si16  1  0.66666700  0.33333300  0.14096900  1
  O  O17  1  0.45688200  0.15499200  0.00054600  1
  O  O18  1  0.30189000  0.45688200  0.99945400  1
  O  O19  1  0.61235100  0.10394200  0.23799300  1
  O  O20  1  0.84500800  0.30189000  0.00054600  1
  O  O21  1  0.57938300  0.83428000  0.49187500  1
  O  O22  1  0.10394200  0.49159100  0.76200700  1
  O  O23  1  0.16572000  0.74510400  0.49187500  1
  O  O24  1  0.25489600  0.42061700  0.49187500  1
  O  O25  1  0.83428000  0.25489600  0.50812500  1
  O  O26  1  0.42061700  0.16572000  0.50812500  1
  O  O27  1  0.22504800  0.18013500  0.75871800  1
  O  O28  1  0.74510400  0.57938300  0.50812500  1
  O  O29  1  0.95508800  0.77495200  0.75871800  1
  O  O30  1  0.81986500  0.04491200  0.75871800  1
  O  O31  1  0.18013500  0.95508800  0.24128200  1
  O  O32  1  0.49159100  0.38764900  0.23799300  1
  O  O33  1  0.54311800  0.84500800  0.99945400  1
  O  O34  1  0.77495200  0.81986500  0.24128200  1
  O  O35  1  0.69811000  0.54311800  0.00054600  1
  O  O36  1  0.50840900  0.61235100  0.76200700  1
  O  O37  1  0.38764900  0.89605800  0.76200700  1
  O  O38  1  0.89605800  0.50840900  0.23799300  1
  O  O39  1  0.33333300  0.66666700  0.24928300  1
  O  O40  1  0.66666700  0.33333300  0.75071700  1
  O  O41  1  0.15499200  0.69811000  0.99945400  1
  O  O42  1  0.04491200  0.22504800  0.24128200  1
  O  O43  1  0.00000000  0.00000000  0.50000000  1
