# generated using pymatgen
data_Sr3Cu3(PO4)4
_symmetry_space_group_name_H-M   'P 1'
_cell_length_a   5.01746500
_cell_length_b   9.35665600
_cell_length_c   17.44428117
_cell_angle_alpha   60.45479188
_cell_angle_beta   90.00000000
_cell_angle_gamma   90.00000000
_symmetry_Int_Tables_number   1
_chemical_formula_structural   Sr3Cu3(PO4)4
_chemical_formula_sum   'Sr6 Cu6 P8 O32'
_cell_volume   712.46053992
_cell_formula_units_Z   2
loop_
 _symmetry_equiv_pos_site_id
 _symmetry_equiv_pos_as_xyz
  1  'x, y, z'
loop_
 _atom_site_type_symbol
 _atom_site_label
 _atom_site_symmetry_multiplicity
 _atom_site_fract_x
 _atom_site_fract_y
 _atom_site_fract_z
 _atom_site_occupancy
  Sr  Sr0  1  0.53479600  0.80587000  0.73606100  1
  Sr  Sr1  1  0.46520400  0.19413000  0.26393900  1
  Sr  Sr2  1  0.96520400  0.80587000  0.23606100  1
  Sr  Sr3  1  0.00000000  0.50000000  0.50000000  1
  Sr  Sr4  1  0.03479600  0.19413000  0.76393900  1
  Sr  Sr5  1  0.50000000  0.50000000  0.00000000  1
  Cu  Cu6  1  0.03641700  0.70613900  0.62101500  1
  Cu  Cu7  1  0.46358300  0.70613900  0.12101500  1
  Cu  Cu8  1  0.53641700  0.29386100  0.87898500  1
  Cu  Cu9  1  0.96358300  0.29386100  0.37898500  1
  Cu  Cu10  1  0.50000000  0.00000000  0.50000000  1
  Cu  Cu11  1  0.00000000  0.00000000  0.00000000  1
  P  P12  1  0.52061400  0.46693500  0.66307500  1
  P  P13  1  0.97938600  0.46693500  0.16307500  1
  P  P14  1  0.02061400  0.53306500  0.83692500  1
  P  P15  1  0.00987200  0.93870800  0.41225100  1
  P  P16  1  0.99012800  0.06129200  0.58774900  1
  P  P17  1  0.50987200  0.06129200  0.08774900  1
  P  P18  1  0.49012800  0.93870800  0.91225100  1
  P  P19  1  0.47938600  0.53306500  0.33692500  1
  O  O20  1  0.30832200  0.07212000  0.91847100  1
  O  O21  1  0.21407500  0.00401200  0.09384800  1
  O  O22  1  0.56031300  0.23033200  0.00471700  1
  O  O23  1  0.02047400  0.32643100  0.26181800  1
  O  O24  1  0.43968700  0.76966800  0.99528300  1
  O  O25  1  0.97952600  0.67356900  0.73818200  1
  O  O26  1  0.82448800  0.47718600  0.64338500  1
  O  O27  1  0.92410000  0.36376700  0.85058400  1
  O  O28  1  0.91457700  0.06522300  0.67159800  1
  O  O29  1  0.13617000  0.40722100  0.10898100  1
  O  O30  1  0.28592500  0.00401200  0.59384800  1
  O  O31  1  0.71407500  0.99598800  0.40615200  1
  O  O32  1  0.63617000  0.59277900  0.39101900  1
  O  O33  1  0.93968700  0.23033200  0.50471700  1
  O  O34  1  0.52047400  0.67356900  0.23818200  1
  O  O35  1  0.69167800  0.92788000  0.08152900  1
  O  O36  1  0.42410000  0.63623300  0.64941600  1
  O  O37  1  0.06031300  0.76966800  0.49528300  1
  O  O38  1  0.17551200  0.52281400  0.35661500  1
  O  O39  1  0.78592500  0.99598800  0.90615200  1
  O  O40  1  0.58542300  0.06522300  0.17159800  1
  O  O41  1  0.47952600  0.32643100  0.76181800  1
  O  O42  1  0.86383000  0.59277900  0.89101900  1
  O  O43  1  0.67551200  0.47718600  0.14338500  1
  O  O44  1  0.41457700  0.93477700  0.82840200  1
  O  O45  1  0.80832200  0.92788000  0.58152900  1
  O  O46  1  0.07590000  0.63623300  0.14941600  1
  O  O47  1  0.32448800  0.52281400  0.85661500  1
  O  O48  1  0.36383000  0.40722100  0.60898100  1
  O  O49  1  0.57590000  0.36376700  0.35058400  1
  O  O50  1  0.08542300  0.93477700  0.32840200  1
  O  O51  1  0.19167800  0.07212000  0.41847100  1
