# generated using pymatgen
data_TlS
_symmetry_space_group_name_H-M   'P 1'
_cell_length_a   8.02724400
_cell_length_b   8.02724400
_cell_length_c   29.99186900
_cell_angle_alpha   90.00000000
_cell_angle_beta   90.00000000
_cell_angle_gamma   90.00000000
_symmetry_Int_Tables_number   1
_chemical_formula_structural   TlS
_chemical_formula_sum   'Tl32 S32'
_cell_volume   1932.57545270
_cell_formula_units_Z   32
loop_
 _symmetry_equiv_pos_site_id
 _symmetry_equiv_pos_as_xyz
  1  'x, y, z'
loop_
 _atom_site_type_symbol
 _atom_site_label
 _atom_site_symmetry_multiplicity
 _atom_site_fract_x
 _atom_site_fract_y
 _atom_site_fract_z
 _atom_site_occupancy
  Tl  Tl0  1  0.41881900  0.62809200  0.81744300  1
  Tl  Tl1  1  0.87815500  0.87074500  0.20279900  1
  Tl  Tl2  1  0.12925500  0.12184500  0.29720100  1
  Tl  Tl3  1  0.91017300  0.37394600  0.93624500  1
  Tl  Tl4  1  0.62674500  0.12543900  0.69740300  1
  Tl  Tl5  1  0.12674500  0.37456100  0.05259700  1
  Tl  Tl6  1  0.62925500  0.37815500  0.45279900  1
  Tl  Tl7  1  0.62184500  0.37074500  0.04720100  1
  Tl  Tl8  1  0.41017300  0.12605400  0.81375500  1
  Tl  Tl9  1  0.37815500  0.62925500  0.54720100  1
  Tl  Tl10  1  0.87074500  0.87815500  0.79720100  1
  Tl  Tl11  1  0.12543900  0.62674500  0.30259700  1
  Tl  Tl12  1  0.62605400  0.08982700  0.56375500  1
  Tl  Tl13  1  0.91881900  0.87190800  0.93255700  1
  Tl  Tl14  1  0.12809200  0.08118100  0.56744300  1
  Tl  Tl15  1  0.08982700  0.62605400  0.43624500  1
  Tl  Tl16  1  0.87394600  0.58982700  0.68624500  1
  Tl  Tl17  1  0.58982700  0.87394600  0.31375500  1
  Tl  Tl18  1  0.62543900  0.87325500  0.44740300  1
  Tl  Tl19  1  0.62809200  0.41881900  0.18255700  1
  Tl  Tl20  1  0.12605400  0.41017300  0.18624500  1
  Tl  Tl21  1  0.87456100  0.37325500  0.80259700  1
  Tl  Tl22  1  0.37456100  0.12674500  0.94740300  1
  Tl  Tl23  1  0.37190800  0.58118100  0.68255700  1
  Tl  Tl24  1  0.37394600  0.91017300  0.06375500  1
  Tl  Tl25  1  0.08118100  0.12809200  0.43255700  1
  Tl  Tl26  1  0.37074500  0.62184500  0.95279900  1
  Tl  Tl27  1  0.37325500  0.87456100  0.19740300  1
  Tl  Tl28  1  0.87190800  0.91881900  0.06744300  1
  Tl  Tl29  1  0.58118100  0.37190800  0.31744300  1
  Tl  Tl30  1  0.12184500  0.12925500  0.70279900  1
  Tl  Tl31  1  0.87325500  0.62543900  0.55259700  1
  S  S32  1  0.88487400  0.88487400  0.50000000  1
  S  S33  1  0.68706800  0.13183700  0.39964100  1
  S  S34  1  0.61617600  0.85796900  0.74250600  1
  S  S35  1  0.86454500  0.13545500  0.25000000  1
  S  S36  1  0.31293200  0.86816300  0.89964100  1
  S  S37  1  0.64203100  0.11617600  0.99250600  1
  S  S38  1  0.13183700  0.68706800  0.60035900  1
  S  S39  1  0.61926500  0.68384000  0.60187900  1
  S  S40  1  0.88382400  0.35796900  0.50749400  1
  S  S41  1  0.85796900  0.61617600  0.25749400  1
  S  S42  1  0.38382400  0.14203100  0.24250600  1
  S  S43  1  0.35796900  0.88382400  0.49250600  1
  S  S44  1  0.13545500  0.86454500  0.75000000  1
  S  S45  1  0.38487400  0.61512600  0.25000000  1
  S  S46  1  0.63183700  0.81293200  0.14964100  1
  S  S47  1  0.61512600  0.38487400  0.75000000  1
  S  S48  1  0.31616000  0.38073500  0.89812100  1
  S  S49  1  0.11512600  0.11512600  0.00000000  1
  S  S50  1  0.81293200  0.63183700  0.85035900  1
  S  S51  1  0.81616000  0.11926500  0.85187900  1
  S  S52  1  0.18706800  0.36816300  0.35035900  1
  S  S53  1  0.36816300  0.18706800  0.64964100  1
  S  S54  1  0.38073500  0.31616000  0.10187900  1
  S  S55  1  0.36454500  0.36454500  0.50000000  1
  S  S56  1  0.63545500  0.63545500  0.00000000  1
  S  S57  1  0.88073500  0.18384000  0.64812100  1
  S  S58  1  0.11617600  0.64203100  0.00749400  1
  S  S59  1  0.18384000  0.88073500  0.35187900  1
  S  S60  1  0.14203100  0.38382400  0.75749400  1
  S  S61  1  0.86816300  0.31293200  0.10035900  1
  S  S62  1  0.11926500  0.81616000  0.14812100  1
  S  S63  1  0.68384000  0.61926500  0.39812100  1
