# generated using pymatgen
data_Y(IO3)3
_symmetry_space_group_name_H-M   'P 1'
_cell_length_a   8.63082700
_cell_length_b   7.21740200
_cell_length_c   13.56807003
_cell_angle_alpha   79.80515371
_cell_angle_beta   90.00000000
_cell_angle_gamma   90.00000000
_symmetry_Int_Tables_number   1
_chemical_formula_structural   Y(IO3)3
_chemical_formula_sum   'Y4 I12 O36'
_cell_volume   831.84006355
_cell_formula_units_Z   4
loop_
 _symmetry_equiv_pos_site_id
 _symmetry_equiv_pos_as_xyz
  1  'x, y, z'
loop_
 _atom_site_type_symbol
 _atom_site_label
 _atom_site_symmetry_multiplicity
 _atom_site_fract_x
 _atom_site_fract_y
 _atom_site_fract_z
 _atom_site_occupancy
  Y  Y0  1  0.24544200  0.17101900  0.85375100  1
  Y  Y1  1  0.74544200  0.82898100  0.64624900  1
  Y  Y2  1  0.25455800  0.17101900  0.35375100  1
  Y  Y3  1  0.75455800  0.82898100  0.14624900  1
  I  I4  1  0.54382800  0.33308200  0.14423600  1
  I  I5  1  0.52114100  0.73322900  0.38995900  1
  I  I6  1  0.97885900  0.73322900  0.88995900  1
  I  I7  1  0.04382800  0.66691800  0.35576400  1
  I  I8  1  0.02114100  0.26677100  0.11004100  1
  I  I9  1  0.79480500  0.16439900  0.39063900  1
  I  I10  1  0.29480500  0.83560100  0.10936100  1
  I  I11  1  0.45617200  0.66691800  0.85576400  1
  I  I12  1  0.47885900  0.26677100  0.61004100  1
  I  I13  1  0.95617200  0.33308200  0.64423600  1
  I  I14  1  0.70519500  0.16439900  0.89063900  1
  I  I15  1  0.20519500  0.83560100  0.60936100  1
  O  O16  1  0.53308400  0.66185400  0.73030900  1
  O  O17  1  0.58043300  0.67768200  0.52040100  1
  O  O18  1  0.69180900  0.14932100  0.17754600  1
  O  O19  1  0.83499000  0.36196000  0.45452400  1
  O  O20  1  0.80819100  0.14932100  0.67754600  1
  O  O21  1  0.67392400  0.53154400  0.13946500  1
  O  O22  1  0.02632000  0.84430200  0.68136700  1
  O  O23  1  0.46691600  0.33814600  0.26969100  1
  O  O24  1  0.41956700  0.32231800  0.47959900  1
  O  O25  1  0.52632000  0.15569800  0.81863300  1
  O  O26  1  0.91956700  0.67768200  0.02040100  1
  O  O27  1  0.83244500  0.96473300  0.49090300  1
  O  O28  1  0.29135300  0.22528100  0.67624900  1
  O  O29  1  0.97043700  0.01997900  0.11237000  1
  O  O30  1  0.96691600  0.66185400  0.23030900  1
  O  O31  1  0.02956300  0.98002100  0.88763000  1
  O  O32  1  0.08043300  0.32231800  0.97959900  1
  O  O33  1  0.82607600  0.53154400  0.63946500  1
  O  O34  1  0.79135300  0.77471900  0.82375100  1
  O  O35  1  0.52956300  0.01997900  0.61237000  1
  O  O36  1  0.19180900  0.85067900  0.32245400  1
  O  O37  1  0.97368000  0.15569800  0.31863300  1
  O  O38  1  0.30819100  0.85067900  0.82245400  1
  O  O39  1  0.33244500  0.03526700  0.00909700  1
  O  O40  1  0.47043700  0.98002100  0.38763000  1
  O  O41  1  0.70864700  0.77471900  0.32375100  1
  O  O42  1  0.03308400  0.33814600  0.76969100  1
  O  O43  1  0.47368000  0.84430200  0.18136700  1
  O  O44  1  0.66755500  0.96473300  0.99090300  1
  O  O45  1  0.32607600  0.46845600  0.86053500  1
  O  O46  1  0.66501000  0.36196000  0.95452400  1
  O  O47  1  0.17392400  0.46845600  0.36053500  1
  O  O48  1  0.16755500  0.03526700  0.50909700  1
  O  O49  1  0.33499000  0.63804000  0.04547600  1
  O  O50  1  0.20864700  0.22528100  0.17624900  1
  O  O51  1  0.16501000  0.63804000  0.54547600  1
