# generated using pymatgen
data_SXeO3F2
_symmetry_space_group_name_H-M   'P 1'
_cell_length_a   10.27659100
_cell_length_b   10.41526200
_cell_length_c   10.55297400
_cell_angle_alpha   90.00000000
_cell_angle_beta   90.00000000
_cell_angle_gamma   90.00000000
_symmetry_Int_Tables_number   1
_chemical_formula_structural   SXeO3F2
_chemical_formula_sum   'S8 Xe8 O24 F16'
_cell_volume   1129.52055787
_cell_formula_units_Z   8
loop_
 _symmetry_equiv_pos_site_id
 _symmetry_equiv_pos_as_xyz
  1  'x, y, z'
loop_
 _atom_site_type_symbol
 _atom_site_label
 _atom_site_symmetry_multiplicity
 _atom_site_fract_x
 _atom_site_fract_y
 _atom_site_fract_z
 _atom_site_occupancy
  S  S0  1  0.53692900  0.22715100  0.48517400  1
  S  S1  1  0.53692900  0.27284900  0.98517400  1
  S  S2  1  0.96307100  0.72715100  0.48517400  1
  S  S3  1  0.03692900  0.22715100  0.01482600  1
  S  S4  1  0.46307100  0.77284900  0.51482600  1
  S  S5  1  0.46307100  0.72715100  0.01482600  1
  S  S6  1  0.96307100  0.77284900  0.98517400  1
  S  S7  1  0.03692900  0.27284900  0.51482600  1
  Xe  Xe8  1  0.67461400  0.05187300  0.16720500  1
  Xe  Xe9  1  0.82538600  0.55187300  0.16720500  1
  Xe  Xe10  1  0.82538600  0.94812700  0.66720500  1
  Xe  Xe11  1  0.17461400  0.44812700  0.83279500  1
  Xe  Xe12  1  0.32538600  0.94812700  0.83279500  1
  Xe  Xe13  1  0.67461400  0.44812700  0.66720500  1
  Xe  Xe14  1  0.17461400  0.05187300  0.33279500  1
  Xe  Xe15  1  0.32538600  0.55187300  0.33279500  1
  O  O16  1  0.02058200  0.13868300  0.45708300  1
  O  O17  1  0.83227000  0.68001100  0.48857400  1
  O  O18  1  0.33227000  0.81998900  0.51142600  1
  O  O19  1  0.46103500  0.22121600  0.37131600  1
  O  O20  1  0.03896500  0.72121600  0.37131600  1
  O  O21  1  0.47941800  0.86131700  0.95708300  1
  O  O22  1  0.53896500  0.77878400  0.62868400  1
  O  O23  1  0.66773000  0.31998900  0.98857400  1
  O  O24  1  0.96103500  0.27878400  0.62868400  1
  O  O25  1  0.53896500  0.72121600  0.12868400  1
  O  O26  1  0.47941800  0.63868300  0.45708300  1
  O  O27  1  0.03896500  0.77878400  0.87131600  1
  O  O28  1  0.46103500  0.27878400  0.87131600  1
  O  O29  1  0.52058200  0.36131700  0.54291700  1
  O  O30  1  0.96103500  0.22121600  0.12868400  1
  O  O31  1  0.16773000  0.31998900  0.51142600  1
  O  O32  1  0.83227000  0.81998900  0.98857400  1
  O  O33  1  0.02058200  0.36131700  0.95708300  1
  O  O34  1  0.52058200  0.13868300  0.04291700  1
  O  O35  1  0.97941800  0.86131700  0.54291700  1
  O  O36  1  0.33227000  0.68001100  0.01142600  1
  O  O37  1  0.16773000  0.18001100  0.01142600  1
  O  O38  1  0.66773000  0.18001100  0.48857400  1
  O  O39  1  0.97941800  0.63868300  0.04291700  1
  F  F40  1  0.54155800  0.64141900  0.91413400  1
  F  F41  1  0.18948100  0.46105400  0.22170000  1
  F  F42  1  0.45844200  0.35858100  0.08586600  1
  F  F43  1  0.81051900  0.96105400  0.27830000  1
  F  F44  1  0.68948100  0.46105400  0.27830000  1
  F  F45  1  0.18948100  0.03894600  0.72170000  1
  F  F46  1  0.68948100  0.03894600  0.77830000  1
  F  F47  1  0.04155800  0.64141900  0.58586600  1
  F  F48  1  0.95844200  0.35858100  0.41413400  1
  F  F49  1  0.54155800  0.85858100  0.41413400  1
  F  F50  1  0.31051900  0.96105400  0.22170000  1
  F  F51  1  0.81051900  0.53894600  0.77830000  1
  F  F52  1  0.45844200  0.14141900  0.58586600  1
  F  F53  1  0.31051900  0.53894600  0.72170000  1
  F  F54  1  0.04155800  0.85858100  0.08586600  1
  F  F55  1  0.95844200  0.14141900  0.91413400  1
