# generated using pymatgen
data_Sr3Y2(BO3)4
_symmetry_space_group_name_H-M   'P 1'
_cell_length_a   7.41225600
_cell_length_b   8.74786800
_cell_length_c   16.33863900
_cell_angle_alpha   90.00000000
_cell_angle_beta   90.00000000
_cell_angle_gamma   90.00000000
_symmetry_Int_Tables_number   1
_chemical_formula_structural   Sr3Y2(BO3)4
_chemical_formula_sum   'Sr12 Y8 B16 O48'
_cell_volume   1059.42083253
_cell_formula_units_Z   4
loop_
 _symmetry_equiv_pos_site_id
 _symmetry_equiv_pos_as_xyz
  1  'x, y, z'
loop_
 _atom_site_type_symbol
 _atom_site_label
 _atom_site_symmetry_multiplicity
 _atom_site_fract_x
 _atom_site_fract_y
 _atom_site_fract_z
 _atom_site_occupancy
  Sr  Sr0  1  0.02808000  0.66415500  0.22535000  1
  Sr  Sr1  1  0.30856500  0.65135400  0.68155100  1
  Sr  Sr2  1  0.69143500  0.34864600  0.18155100  1
  Sr  Sr3  1  0.82713700  0.85187600  0.43033400  1
  Sr  Sr4  1  0.67286300  0.35187600  0.93033400  1
  Sr  Sr5  1  0.17286300  0.14812400  0.93033400  1
  Sr  Sr6  1  0.32713700  0.64812400  0.43033400  1
  Sr  Sr7  1  0.80856500  0.84864600  0.68155100  1
  Sr  Sr8  1  0.19143500  0.15135400  0.18155100  1
  Sr  Sr9  1  0.47192000  0.16415500  0.72535000  1
  Sr  Sr10  1  0.97192000  0.33584500  0.72535000  1
  Sr  Sr11  1  0.52808000  0.83584500  0.22535000  1
  Y  Y12  1  0.49497500  0.17639400  0.39030800  1
  Y  Y13  1  0.68355700  0.47135800  0.55747000  1
  Y  Y14  1  0.18355700  0.02864200  0.55747000  1
  Y  Y15  1  0.50502500  0.82360600  0.89030800  1
  Y  Y16  1  0.00502500  0.67639400  0.89030800  1
  Y  Y17  1  0.99497500  0.32360600  0.39030800  1
  Y  Y18  1  0.31644300  0.52864200  0.05747000  1
  Y  Y19  1  0.81644300  0.97135800  0.05747000  1
  B  B20  1  0.16992400  0.95564300  0.35604800  1
  B  B21  1  0.65863300  0.56595000  0.76596400  1
  B  B22  1  0.48642600  0.12557500  0.05180900  1
  B  B23  1  0.83007600  0.04435700  0.85604800  1
  B  B24  1  0.01357400  0.62557500  0.55180900  1
  B  B25  1  0.28902100  0.34659500  0.55371700  1
  B  B26  1  0.84136700  0.06595000  0.26596400  1
  B  B27  1  0.71097800  0.65340500  0.05371700  1
  B  B28  1  0.66992400  0.54435700  0.35604800  1
  B  B29  1  0.98642600  0.37442500  0.05180900  1
  B  B30  1  0.34136700  0.43405000  0.26596400  1
  B  B31  1  0.51357400  0.87442500  0.55180900  1
  B  B32  1  0.78902200  0.15340500  0.55371700  1
  B  B33  1  0.15863300  0.93405000  0.76596400  1
  B  B34  1  0.21097900  0.84659500  0.05371700  1
  B  B35  1  0.33007600  0.45564300  0.85604800  1
  O  O36  1  0.58578100  0.45245600  0.41484600  1
  O  O37  1  0.88814200  0.19346300  0.84703500  1
  O  O38  1  0.88751000  0.97203700  0.20181800  1
  O  O39  1  0.46170200  0.95521600  0.48141600  1
  O  O40  1  0.20276800  0.46796300  0.32041900  1
  O  O41  1  0.70276800  0.03203700  0.32041900  1
  O  O42  1  0.96170200  0.54478400  0.48141600  1
  O  O43  1  0.55540600  0.07390600  0.12578300  1
  O  O44  1  0.94459400  0.57390600  0.62578300  1
  O  O45  1  0.38814200  0.30653700  0.84703500  1
  O  O46  1  0.61249000  0.47203700  0.70181800  1
  O  O47  1  0.12673000  0.98536700  0.05922200  1
  O  O48  1  0.68923500  0.98820600  0.80939700  1
  O  O49  1  0.26800500  0.76712200  0.12167900  1
  O  O50  1  0.91421900  0.95245600  0.91484600  1
  O  O51  1  0.43118900  0.29497100  0.27319600  1
  O  O52  1  0.38751000  0.52796300  0.20181800  1
  O  O53  1  0.26379500  0.27240600  0.47843200  1
  O  O54  1  0.11249000  0.02796300  0.70181800  1
  O  O55  1  0.37327000  0.48536700  0.55922200  1
  O  O56  1  0.93118900  0.20502900  0.27319600  1
  O  O57  1  0.23199500  0.26712200  0.62167900  1
  O  O58  1  0.76800500  0.73287800  0.12167900  1
  O  O59  1  0.08578100  0.04754400  0.41484600  1
  O  O60  1  0.41421900  0.54754400  0.91484600  1
  O  O61  1  0.61185800  0.69346300  0.34703500  1
  O  O62  1  0.18923500  0.51179400  0.80939700  1
  O  O63  1  0.38304500  0.25816500  0.04800700  1
  O  O64  1  0.73199500  0.23287800  0.62167900  1
  O  O65  1  0.44459400  0.92609400  0.62578300  1
  O  O66  1  0.87327000  0.01463300  0.55922200  1
  O  O67  1  0.79723200  0.53203700  0.82041900  1
  O  O68  1  0.73620500  0.72759400  0.97843200  1
  O  O69  1  0.29723200  0.96796300  0.82041900  1
  O  O70  1  0.11185800  0.80653700  0.34703500  1
  O  O71  1  0.56881100  0.70502900  0.77319600  1
  O  O72  1  0.11695500  0.75816500  0.54800700  1
  O  O73  1  0.53829800  0.04478400  0.98141600  1
  O  O74  1  0.05540600  0.42609400  0.12578300  1
  O  O75  1  0.06881100  0.79497100  0.77319600  1
  O  O76  1  0.03829800  0.45521600  0.98141600  1
  O  O77  1  0.62673000  0.51463300  0.05922200  1
  O  O78  1  0.76379500  0.22759400  0.47843200  1
  O  O79  1  0.61695500  0.74183500  0.54800700  1
  O  O80  1  0.88304500  0.24183500  0.04800700  1
  O  O81  1  0.31076500  0.01179400  0.30939700  1
  O  O82  1  0.81076500  0.48820600  0.30939700  1
  O  O83  1  0.23620500  0.77240600  0.97843200  1
