# generated using pymatgen
data_La(BO2)3
_symmetry_space_group_name_H-M   'P 1'
_cell_length_a   11.83354500
_cell_length_b   4.27640900
_cell_length_c   7.35171816
_cell_angle_alpha   88.79376200
_cell_angle_beta   90.00000000
_cell_angle_gamma   90.00000000
_symmetry_Int_Tables_number   1
_chemical_formula_structural   La(BO2)3
_chemical_formula_sum   'La4 B12 O24'
_cell_volume   371.95182965
_cell_formula_units_Z   4
loop_
 _symmetry_equiv_pos_site_id
 _symmetry_equiv_pos_as_xyz
  1  'x, y, z'
loop_
 _atom_site_type_symbol
 _atom_site_label
 _atom_site_symmetry_multiplicity
 _atom_site_fract_x
 _atom_site_fract_y
 _atom_site_fract_z
 _atom_site_occupancy
  La  La0  1  0.37733400  0.78394900  0.88012500  1
  La  La1  1  0.62266600  0.21605100  0.11987500  1
  La  La2  1  0.87733400  0.21605100  0.61987500  1
  La  La3  1  0.12266600  0.78394900  0.38012500  1
  B  B4  1  0.16604600  0.32284900  0.71094700  1
  B  B5  1  0.83395400  0.67715100  0.28905300  1
  B  B6  1  0.59365400  0.19602600  0.62613600  1
  B  B7  1  0.66604600  0.67715100  0.78905300  1
  B  B8  1  0.62189500  0.68914100  0.42750800  1
  B  B9  1  0.12189500  0.31085900  0.07249200  1
  B  B10  1  0.09365400  0.80397400  0.87386400  1
  B  B11  1  0.33395400  0.32284900  0.21094700  1
  B  B12  1  0.37810500  0.31085900  0.57249200  1
  B  B13  1  0.87810500  0.68914100  0.92750800  1
  B  B14  1  0.40634600  0.80397400  0.37386400  1
  B  B15  1  0.90634600  0.19602600  0.12613600  1
  O  O16  1  0.62757200  0.84792900  0.61080400  1
  O  O17  1  0.71573600  0.77967700  0.30756500  1
  O  O18  1  0.90947100  0.75049500  0.43771100  1
  O  O19  1  0.02429700  0.20502100  0.18073600  1
  O  O20  1  0.40947100  0.24950500  0.06228900  1
  O  O21  1  0.62027200  0.35031300  0.45354400  1
  O  O22  1  0.12757200  0.15207100  0.88919600  1
  O  O23  1  0.21573600  0.22032300  0.19243500  1
  O  O24  1  0.97570300  0.79497900  0.81926400  1
  O  O25  1  0.87242800  0.84792900  0.11080400  1
  O  O26  1  0.83256400  0.33365200  0.26400500  1
  O  O27  1  0.47570300  0.20502100  0.68073600  1
  O  O28  1  0.33256400  0.66634800  0.23599500  1
  O  O29  1  0.52429700  0.79497900  0.31926400  1
  O  O30  1  0.12027200  0.64968700  0.04645600  1
  O  O31  1  0.16743600  0.66634800  0.73599500  1
  O  O32  1  0.59052900  0.75049500  0.93771100  1
  O  O33  1  0.28426400  0.22032300  0.69243500  1
  O  O34  1  0.37242800  0.15207100  0.38919600  1
  O  O35  1  0.78426400  0.77967700  0.80756500  1
  O  O36  1  0.87972800  0.35031300  0.95354400  1
  O  O37  1  0.09052900  0.24950500  0.56228900  1
  O  O38  1  0.66743600  0.33365200  0.76400500  1
  O  O39  1  0.37972800  0.64968700  0.54645600  1
