# generated using pymatgen
data_Na3MnF6
_symmetry_space_group_name_H-M   'P 1'
_cell_length_a   5.75684200
_cell_length_b   5.56275600
_cell_length_c   9.82907164
_cell_angle_alpha   57.28746671
_cell_angle_beta   90.00000000
_cell_angle_gamma   90.00000000
_symmetry_Int_Tables_number   1
_chemical_formula_structural   Na3MnF6
_chemical_formula_sum   'Na6 Mn2 F12'
_cell_volume   264.84117259
_cell_formula_units_Z   2
loop_
 _symmetry_equiv_pos_site_id
 _symmetry_equiv_pos_as_xyz
  1  'x, y, z'
loop_
 _atom_site_type_symbol
 _atom_site_label
 _atom_site_symmetry_multiplicity
 _atom_site_fract_x
 _atom_site_fract_y
 _atom_site_fract_z
 _atom_site_occupancy
  Na  Na0  1  0.44510200  0.24195600  0.75160200  1
  Na  Na1  1  0.94510200  0.75804400  0.74839800  1
  Na  Na2  1  0.55489800  0.75804400  0.24839800  1
  Na  Na3  1  0.05489800  0.24195600  0.25160200  1
  Na  Na4  1  0.50000000  0.50000000  0.00000000  1
  Na  Na5  1  0.00000000  0.50000000  0.50000000  1
  Mn  Mn6  1  0.50000000  0.00000000  0.50000000  1
  Mn  Mn7  1  0.00000000  0.00000000  0.00000000  1
  F  F8  1  0.77934900  0.90631100  0.43272000  1
  F  F9  1  0.27934900  0.09368900  0.06728000  1
  F  F10  1  0.22065100  0.09368900  0.56728000  1
  F  F11  1  0.72065100  0.90631100  0.93272000  1
  F  F12  1  0.67195900  0.22297500  0.55863400  1
  F  F13  1  0.17195900  0.77702500  0.94136600  1
  F  F14  1  0.32804100  0.77702500  0.44136600  1
  F  F15  1  0.82804100  0.22297500  0.05863400  1
  F  F16  1  0.93814700  0.64565000  0.23635900  1
  F  F17  1  0.43814700  0.35435000  0.26364100  1
  F  F18  1  0.06185300  0.35435000  0.76364100  1
  F  F19  1  0.56185300  0.64565000  0.73635900  1
