# generated using pymatgen
data_Rb6Si10O23
_symmetry_space_group_name_H-M   'P 1'
_cell_length_a   9.65899831
_cell_length_b   9.65899831
_cell_length_c   8.29981400
_cell_angle_alpha   90.00000000
_cell_angle_beta   90.00000000
_cell_angle_gamma   120.00000212
_symmetry_Int_Tables_number   1
_chemical_formula_structural   Rb6Si10O23
_chemical_formula_sum   'Rb6 Si10 O23'
_cell_volume   670.59940289
_cell_formula_units_Z   1
loop_
 _symmetry_equiv_pos_site_id
 _symmetry_equiv_pos_as_xyz
  1  'x, y, z'
loop_
 _atom_site_type_symbol
 _atom_site_label
 _atom_site_symmetry_multiplicity
 _atom_site_fract_x
 _atom_site_fract_y
 _atom_site_fract_z
 _atom_site_occupancy
  Rb  Rb0  1  0.25052100  0.00000000  0.50000000  1
  Rb  Rb1  1  0.74947900  0.74947900  0.50000000  1
  Rb  Rb2  1  0.00000000  0.23670000  0.00000000  1
  Rb  Rb3  1  0.23670000  0.00000000  0.00000000  1
  Rb  Rb4  1  0.76330000  0.76330000  0.00000000  1
  Rb  Rb5  1  0.00000000  0.25052100  0.50000000  1
  Si  Si6  1  0.00000000  0.60555000  0.30243000  1
  Si  Si7  1  0.66666700  0.33333300  0.19572700  1
  Si  Si8  1  0.33333300  0.66666700  0.19572700  1
  Si  Si9  1  0.39445000  0.39445000  0.30243000  1
  Si  Si10  1  0.66666700  0.33333300  0.80427300  1
  Si  Si11  1  0.39445000  0.39445000  0.69757000  1
  Si  Si12  1  0.00000000  0.60555000  0.69757000  1
  Si  Si13  1  0.60555000  0.00000000  0.30243000  1
  Si  Si14  1  0.60555000  0.00000000  0.69757000  1
  Si  Si15  1  0.33333300  0.66666700  0.80427300  1
  O  O16  1  0.33333300  0.66666700  0.00000000  1
  O  O17  1  0.24644800  0.24644800  0.22142800  1
  O  O18  1  0.00000000  0.75355200  0.77857200  1
  O  O19  1  0.38089600  0.38089600  0.50000000  1
  O  O20  1  0.15029900  0.57305200  0.73959700  1
  O  O21  1  0.75355200  0.00000000  0.77857200  1
  O  O22  1  0.57724700  0.42694800  0.73959700  1
  O  O23  1  0.57724700  0.42694800  0.26040300  1
  O  O24  1  0.84970100  0.42275300  0.26040300  1
  O  O25  1  0.84970100  0.42275300  0.73959700  1
  O  O26  1  0.66666700  0.33333300  0.00000000  1
  O  O27  1  0.42275300  0.84970100  0.26040300  1
  O  O28  1  0.57305200  0.15029900  0.26040300  1
  O  O29  1  0.75355200  0.00000000  0.22142800  1
  O  O30  1  0.61910400  0.00000000  0.50000000  1
  O  O31  1  0.00000000  0.75355200  0.22142800  1
  O  O32  1  0.42275300  0.84970100  0.73959700  1
  O  O33  1  0.00000000  0.61910400  0.50000000  1
  O  O34  1  0.42694800  0.57724700  0.73959700  1
  O  O35  1  0.57305200  0.15029900  0.73959700  1
  O  O36  1  0.24644800  0.24644800  0.77857200  1
  O  O37  1  0.42694800  0.57724700  0.26040300  1
  O  O38  1  0.15029900  0.57305200  0.26040300  1
