# generated using pymatgen
data_AsCSF11
_symmetry_space_group_name_H-M   'P 1'
_cell_length_a   11.37275800
_cell_length_b   6.37801900
_cell_length_c   11.91783119
_cell_angle_alpha   79.40688720
_cell_angle_beta   90.00000000
_cell_angle_gamma   90.00000000
_symmetry_Int_Tables_number   1
_chemical_formula_structural   AsCSF11
_chemical_formula_sum   'As4 C4 S4 F44'
_cell_volume   849.73509684
_cell_formula_units_Z   4
loop_
 _symmetry_equiv_pos_site_id
 _symmetry_equiv_pos_as_xyz
  1  'x, y, z'
loop_
 _atom_site_type_symbol
 _atom_site_label
 _atom_site_symmetry_multiplicity
 _atom_site_fract_x
 _atom_site_fract_y
 _atom_site_fract_z
 _atom_site_occupancy
  As  As0  1  0.01611800  0.16314700  0.21844100  1
  As  As1  1  0.98388200  0.83685300  0.78155900  1
  As  As2  1  0.48388200  0.16314700  0.71844100  1
  As  As3  1  0.51611800  0.83685300  0.28155900  1
  C  C4  1  0.79056000  0.48834500  0.51573600  1
  C  C5  1  0.20944000  0.51165500  0.48426400  1
  C  C6  1  0.70944000  0.48834500  0.01573600  1
  C  C7  1  0.29056000  0.51165500  0.98426400  1
  S  S8  1  0.32681300  0.69229300  0.54717000  1
  S  S9  1  0.67318700  0.30770700  0.45283000  1
  S  S10  1  0.82681300  0.30770700  0.95283000  1
  S  S11  1  0.17318700  0.69229300  0.04717000  1
  F  F12  1  0.57559700  0.66127600  0.40663800  1
  F  F13  1  0.78254700  0.36692900  0.82615100  1
  F  F14  1  0.75645200  0.09381600  0.98432800  1
  F  F15  1  0.37193400  0.78084100  0.34746800  1
  F  F16  1  0.50069700  0.38630000  0.78420800  1
  F  F17  1  0.12806600  0.78084100  0.84746800  1
  F  F18  1  0.21745300  0.63307100  0.17384900  1
  F  F19  1  0.07559700  0.33872400  0.09336200  1
  F  F20  1  0.52712800  0.04989200  0.35836400  1
  F  F21  1  0.87193400  0.21915900  0.15253200  1
  F  F22  1  0.99930300  0.38630000  0.28420800  1
  F  F23  1  0.92440300  0.66127600  0.90663800  1
  F  F24  1  0.47287200  0.95010800  0.64163600  1
  F  F25  1  0.97287200  0.04989200  0.85836400  1
  F  F26  1  0.45016500  0.00308300  0.16592600  1
  F  F27  1  0.65840300  0.88689600  0.22752800  1
  F  F28  1  0.73381700  0.59945400  0.58259600  1
  F  F29  1  0.23381700  0.40054600  0.91740400  1
  F  F30  1  0.28254700  0.63307100  0.67384900  1
  F  F31  1  0.02712800  0.95010800  0.14163600  1
  F  F32  1  0.63068700  0.35713500  0.07384100  1
  F  F33  1  0.25645200  0.90618400  0.51567200  1
  F  F34  1  0.42440300  0.33872400  0.59336200  1
  F  F35  1  0.65985500  0.61584400  0.92785000  1
  F  F36  1  0.15985500  0.38415600  0.57215000  1
  F  F37  1  0.84014500  0.61584400  0.42785000  1
  F  F38  1  0.74354800  0.09381600  0.48432800  1
  F  F39  1  0.84159700  0.88689600  0.72752800  1
  F  F40  1  0.86931300  0.35713500  0.57384100  1
  F  F41  1  0.54983500  0.99691700  0.83407400  1
  F  F42  1  0.00069700  0.61370000  0.71579200  1
  F  F43  1  0.13068700  0.64286500  0.42615900  1
  F  F44  1  0.34159700  0.11310400  0.77247200  1
  F  F45  1  0.49930300  0.61370000  0.21579200  1
  F  F46  1  0.15840300  0.11310400  0.27247200  1
  F  F47  1  0.95016500  0.99691700  0.33407400  1
  F  F48  1  0.71745300  0.36692900  0.32615100  1
  F  F49  1  0.24354800  0.90618400  0.01567200  1
  F  F50  1  0.04983500  0.00308300  0.66592600  1
  F  F51  1  0.26618300  0.40054600  0.41740400  1
  F  F52  1  0.76618300  0.59945400  0.08259600  1
  F  F53  1  0.36931300  0.64286500  0.92615900  1
  F  F54  1  0.34014500  0.38415600  0.07215000  1
  F  F55  1  0.62806600  0.21915900  0.65253200  1
