# generated using pymatgen
data_AsCSCl2F9
_symmetry_space_group_name_H-M   'P 1'
_cell_length_a   9.67577100
_cell_length_b   7.86676100
_cell_length_c   12.45882925
_cell_angle_alpha   79.06641806
_cell_angle_beta   90.00000000
_cell_angle_gamma   90.00000000
_symmetry_Int_Tables_number   1
_chemical_formula_structural   AsCSCl2F9
_chemical_formula_sum   'As4 C4 S4 Cl8 F36'
_cell_volume   931.11410098
_cell_formula_units_Z   4
loop_
 _symmetry_equiv_pos_site_id
 _symmetry_equiv_pos_as_xyz
  1  'x, y, z'
loop_
 _atom_site_type_symbol
 _atom_site_label
 _atom_site_symmetry_multiplicity
 _atom_site_fract_x
 _atom_site_fract_y
 _atom_site_fract_z
 _atom_site_occupancy
  As  As0  1  0.25483900  0.19452000  0.92966200  1
  As  As1  1  0.74516100  0.80548000  0.07033800  1
  As  As2  1  0.24516100  0.19452000  0.42966200  1
  As  As3  1  0.75483900  0.80548000  0.57033800  1
  C  C4  1  0.33054800  0.62123500  0.61784000  1
  C  C5  1  0.83054800  0.37876500  0.88216000  1
  C  C6  1  0.66945200  0.37876500  0.38216000  1
  C  C7  1  0.16945200  0.62123500  0.11784000  1
  S  S8  1  0.67175700  0.17267600  0.30568700  1
  S  S9  1  0.32824300  0.82732400  0.69431300  1
  S  S10  1  0.17175700  0.82732400  0.19431300  1
  S  S11  1  0.82824300  0.17267600  0.80568700  1
  Cl  Cl12  1  0.56256000  0.26495000  0.17308900  1
  Cl  Cl13  1  0.93744000  0.26495000  0.67308900  1
  Cl  Cl14  1  0.43744000  0.73505000  0.82691100  1
  Cl  Cl15  1  0.06256000  0.73505000  0.32691100  1
  Cl  Cl16  1  0.86612500  0.18403900  0.25676100  1
  Cl  Cl17  1  0.13387500  0.81596100  0.74323900  1
  Cl  Cl18  1  0.63387500  0.18403900  0.75676100  1
  Cl  Cl19  1  0.36612500  0.81596100  0.24323900  1
  F  F20  1  0.69623900  0.01779900  0.00190600  1
  F  F21  1  0.59123000  0.89092100  0.60107800  1
  F  F22  1  0.30376100  0.98220100  0.99809400  1
  F  F23  1  0.20128400  0.57047000  0.60797900  1
  F  F24  1  0.90658900  0.50260700  0.82397400  1
  F  F25  1  0.67787700  0.85298000  0.19426000  1
  F  F26  1  0.79871600  0.42953000  0.39202100  1
  F  F27  1  0.38669100  0.68082900  0.52067800  1
  F  F28  1  0.58239800  0.72216800  0.04084500  1
  F  F29  1  0.40877000  0.10907900  0.39892200  1
  F  F30  1  0.11330900  0.68082900  0.02067800  1
  F  F31  1  0.40658900  0.49739300  0.67602600  1
  F  F32  1  0.80376100  0.01779900  0.50190600  1
  F  F33  1  0.20251900  0.40254400  0.86095900  1
  F  F34  1  0.09341100  0.49739300  0.17602600  1
  F  F35  1  0.08239800  0.27783200  0.45915500  1
  F  F36  1  0.88669100  0.31917100  0.97932200  1
  F  F37  1  0.70128400  0.42953000  0.89202100  1
  F  F38  1  0.31235800  0.23542300  0.55419200  1
  F  F39  1  0.18764200  0.23542300  0.05419200  1
  F  F40  1  0.32212300  0.14702000  0.80574000  1
  F  F41  1  0.61330900  0.31917100  0.47932200  1
  F  F42  1  0.70251900  0.59745600  0.63904100  1
  F  F43  1  0.82212300  0.85298000  0.69426000  1
  F  F44  1  0.79748100  0.59745600  0.13904100  1
  F  F45  1  0.29748100  0.40254400  0.36095900  1
  F  F46  1  0.68764200  0.76457700  0.44580800  1
  F  F47  1  0.41760200  0.27783200  0.95915500  1
  F  F48  1  0.17787700  0.14702000  0.30574000  1
  F  F49  1  0.19623900  0.98220100  0.49809400  1
  F  F50  1  0.59341100  0.50260700  0.32397400  1
  F  F51  1  0.29871600  0.57047000  0.10797900  1
  F  F52  1  0.81235800  0.76457700  0.94580800  1
  F  F53  1  0.91760200  0.72216800  0.54084500  1
  F  F54  1  0.90877000  0.89092100  0.10107800  1
  F  F55  1  0.09123000  0.10907900  0.89892200  1
