# generated using pymatgen
data_ZnS
_symmetry_space_group_name_H-M   'P 1'
_cell_length_a   3.85405342
_cell_length_b   3.85405342
_cell_length_c   31.48751300
_cell_angle_alpha   90.00000000
_cell_angle_beta   90.00000000
_cell_angle_gamma   119.99999002
_symmetry_Int_Tables_number   1
_chemical_formula_structural   ZnS
_chemical_formula_sum   'Zn10 S10'
_cell_volume   405.04613724
_cell_formula_units_Z   10
loop_
 _symmetry_equiv_pos_site_id
 _symmetry_equiv_pos_as_xyz
  1  'x, y, z'
loop_
 _atom_site_type_symbol
 _atom_site_label
 _atom_site_symmetry_multiplicity
 _atom_site_fract_x
 _atom_site_fract_y
 _atom_site_fract_z
 _atom_site_occupancy
  Zn  Zn0  1  0.66666700  0.33333300  0.19999500  1
  Zn  Zn1  1  0.00000000  0.00000000  0.79998600  1
  Zn  Zn2  1  0.66666700  0.33333300  0.89998700  1
  Zn  Zn3  1  0.33333300  0.66666700  0.69999500  1
  Zn  Zn4  1  0.33333300  0.66666700  0.09999500  1
  Zn  Zn5  1  0.66666700  0.33333300  0.59999500  1
  Zn  Zn6  1  0.00000000  0.00000000  0.00001700  1
  Zn  Zn7  1  0.33333300  0.66666700  0.39998700  1
  Zn  Zn8  1  0.00000000  0.00000000  0.29998600  1
  Zn  Zn9  1  0.00000000  0.00000000  0.50001700  1
  S  S10  1  0.66666700  0.33333300  0.27500400  1
  S  S11  1  0.00000000  0.00000000  0.07500100  1
  S  S12  1  0.66666700  0.33333300  0.67500500  1
  S  S13  1  0.00000000  0.00000000  0.87494600  1
  S  S14  1  0.33333300  0.66666700  0.77500400  1
  S  S15  1  0.00000000  0.00000000  0.57500100  1
  S  S16  1  0.33333300  0.66666700  0.17500500  1
  S  S17  1  0.33333300  0.66666700  0.47506300  1
  S  S18  1  0.66666700  0.33333300  0.97506300  1
  S  S19  1  0.00000000  0.00000000  0.37494600  1
