# generated using pymatgen
data_SiO2
_symmetry_space_group_name_H-M   'P 1'
_cell_length_a   5.28304600
_cell_length_b   11.41033000
_cell_length_c   22.08025700
_cell_angle_alpha   90.00000000
_cell_angle_beta   90.00000000
_cell_angle_gamma   90.00000000
_symmetry_Int_Tables_number   1
_chemical_formula_structural   SiO2
_chemical_formula_sum   'Si24 O48'
_cell_volume   1331.02655799
_cell_formula_units_Z   24
loop_
 _symmetry_equiv_pos_site_id
 _symmetry_equiv_pos_as_xyz
  1  'x, y, z'
loop_
 _atom_site_type_symbol
 _atom_site_label
 _atom_site_symmetry_multiplicity
 _atom_site_fract_x
 _atom_site_fract_y
 _atom_site_fract_z
 _atom_site_occupancy
  Si  Si0  1  0.00000000  0.27399900  0.82763500  1
  Si  Si1  1  0.00000000  0.60070000  0.37187500  1
  Si  Si2  1  0.50000000  0.99128700  0.29207400  1
  Si  Si3  1  0.00000000  0.27399900  0.17236500  1
  Si  Si4  1  0.50000000  0.22926200  0.63304200  1
  Si  Si5  1  0.50000000  0.72600100  0.32763500  1
  Si  Si6  1  0.00000000  0.35377600  0.31278900  1
  Si  Si7  1  0.50000000  0.53175000  0.00000000  1
  Si  Si8  1  0.00000000  0.00871300  0.20792600  1
  Si  Si9  1  0.50000000  0.64622400  0.81278900  1
  Si  Si10  1  0.00000000  0.77073800  0.86695800  1
  Si  Si11  1  0.50000000  0.39930000  0.87187500  1
  Si  Si12  1  0.00000000  0.46825000  0.50000000  1
  Si  Si13  1  0.00000000  0.35377600  0.68721100  1
  Si  Si14  1  0.50000000  0.72600100  0.67236500  1
  Si  Si15  1  0.00000000  0.77073800  0.13304200  1
  Si  Si16  1  0.50000000  0.22926200  0.36695800  1
  Si  Si17  1  0.50000000  0.30483700  0.50000000  1
  Si  Si18  1  0.50000000  0.39930000  0.12812500  1
  Si  Si19  1  0.50000000  0.99128700  0.70792600  1
  Si  Si20  1  0.50000000  0.64622400  0.18721100  1
  Si  Si21  1  0.00000000  0.60070000  0.62812500  1
  Si  Si22  1  0.00000000  0.69516300  0.00000000  1
  Si  Si23  1  0.00000000  0.00871300  0.79207400  1
  O  O24  1  0.75037000  0.61312400  0.00000000  1
  O  O25  1  0.24973100  0.68108100  0.36294000  1
  O  O26  1  0.25026900  0.31891900  0.13706000  1
  O  O27  1  0.25000000  0.00000000  0.75000000  1
  O  O28  1  0.50000000  0.50461300  0.82170400  1
  O  O29  1  0.25053300  0.29952700  0.65555700  1
  O  O30  1  0.75026900  0.68108100  0.36294000  1
  O  O31  1  0.50000000  0.67620300  0.74126400  1
  O  O32  1  0.00000000  0.32379700  0.75873600  1
  O  O33  1  0.74973100  0.31891900  0.13706000  1
  O  O34  1  0.00000000  0.77887800  0.94044700  1
  O  O35  1  0.00000000  0.55013600  0.55972700  1
  O  O36  1  0.00000000  0.32379700  0.24126400  1
  O  O37  1  0.00000000  0.49538700  0.67829600  1
  O  O38  1  0.24946700  0.70047300  0.15555700  1
  O  O39  1  0.50000000  0.86818600  0.67141000  1
  O  O40  1  0.74963000  0.38687600  0.50000000  1
  O  O41  1  0.50000000  0.44986400  0.94027300  1
  O  O42  1  0.24946700  0.70047300  0.84444300  1
  O  O43  1  0.50000000  0.22112200  0.55955300  1
  O  O44  1  0.74946700  0.29952700  0.34444300  1
  O  O45  1  0.24973100  0.68108100  0.63706000  1
  O  O46  1  0.74946700  0.29952700  0.65555700  1
  O  O47  1  0.50000000  0.50461300  0.17829600  1
  O  O48  1  0.50000000  0.22112200  0.44044700  1
  O  O49  1  0.50000000  0.09680300  0.34101000  1
  O  O50  1  0.50000000  0.44986400  0.05972700  1
  O  O51  1  0.00000000  0.55013600  0.44027300  1
  O  O52  1  0.50000000  0.09680300  0.65899000  1
  O  O53  1  0.50000000  0.86818600  0.32859000  1
  O  O54  1  0.25037000  0.38687600  0.50000000  1
  O  O55  1  0.00000000  0.13181400  0.82859000  1
  O  O56  1  0.00000000  0.49538700  0.32170400  1
  O  O57  1  0.25026900  0.31891900  0.86294000  1
  O  O58  1  0.50000000  0.67620300  0.25873600  1
  O  O59  1  0.00000000  0.90319700  0.84101000  1
  O  O60  1  0.00000000  0.13181400  0.17141000  1
  O  O61  1  0.75026900  0.68108100  0.63706000  1
  O  O62  1  0.25053300  0.29952700  0.34444300  1
  O  O63  1  0.24963000  0.61312400  0.00000000  1
  O  O64  1  0.00000000  0.77887800  0.05955300  1
  O  O65  1  0.74973100  0.31891900  0.86294000  1
  O  O66  1  0.25000000  0.00000000  0.25000000  1
  O  O67  1  0.00000000  0.90319700  0.15899000  1
  O  O68  1  0.75053300  0.70047300  0.15555700  1
  O  O69  1  0.75053300  0.70047300  0.84444300  1
  O  O70  1  0.75000000  0.00000000  0.75000000  1
  O  O71  1  0.75000000  0.00000000  0.25000000  1
