# generated using pymatgen
data_ZrF4
_symmetry_space_group_name_H-M   'P 1'
_cell_length_a   8.04283800
_cell_length_b   8.04283800
_cell_length_c   7.85193000
_cell_angle_alpha   90.00000000
_cell_angle_beta   90.00000000
_cell_angle_gamma   90.00000000
_symmetry_Int_Tables_number   1
_chemical_formula_structural   ZrF4
_chemical_formula_sum   'Zr8 F32'
_cell_volume   507.91970467
_cell_formula_units_Z   8
loop_
 _symmetry_equiv_pos_site_id
 _symmetry_equiv_pos_as_xyz
  1  'x, y, z'
loop_
 _atom_site_type_symbol
 _atom_site_label
 _atom_site_symmetry_multiplicity
 _atom_site_fract_x
 _atom_site_fract_y
 _atom_site_fract_z
 _atom_site_occupancy
  Zr  Zr0  1  0.31967500  0.18281100  0.76985600  1
  Zr  Zr1  1  0.68032500  0.81718900  0.23014400  1
  Zr  Zr2  1  0.31967500  0.18281100  0.23014400  1
  Zr  Zr3  1  0.81718900  0.31967500  0.73014400  1
  Zr  Zr4  1  0.68032500  0.81718900  0.76985600  1
  Zr  Zr5  1  0.18281100  0.68032500  0.73014400  1
  Zr  Zr6  1  0.18281100  0.68032500  0.26985600  1
  Zr  Zr7  1  0.81718900  0.31967500  0.26985600  1
  F  F8  1  0.67274300  0.29277100  0.50000000  1
  F  F9  1  0.44048900  0.71134400  0.80541000  1
  F  F10  1  0.06435600  0.20318600  0.21385500  1
  F  F11  1  0.55951100  0.28865600  0.19459000  1
  F  F12  1  0.79681400  0.06435600  0.28614500  1
  F  F13  1  0.28865600  0.44048900  0.69459000  1
  F  F14  1  0.50000000  0.00000000  0.70338400  1
  F  F15  1  0.20318600  0.93564400  0.71385500  1
  F  F16  1  0.66530300  0.96034400  0.00000000  1
  F  F17  1  0.06435600  0.20318600  0.78614500  1
  F  F18  1  0.00000000  0.50000000  0.79661600  1
  F  F19  1  0.93564400  0.79681400  0.78614500  1
  F  F20  1  0.20318600  0.93564400  0.28614500  1
  F  F21  1  0.00000000  0.50000000  0.20338400  1
  F  F22  1  0.33469700  0.03965600  0.00000000  1
  F  F23  1  0.71134400  0.55951100  0.69459000  1
  F  F24  1  0.79681400  0.06435600  0.71385500  1
  F  F25  1  0.55951100  0.28865600  0.80541000  1
  F  F26  1  0.18187500  0.69407400  0.00000000  1
  F  F27  1  0.96034400  0.33469700  0.50000000  1
  F  F28  1  0.70722900  0.67274300  0.00000000  1
  F  F29  1  0.03965600  0.66530300  0.50000000  1
  F  F30  1  0.30592600  0.18187500  0.50000000  1
  F  F31  1  0.93564400  0.79681400  0.21385500  1
  F  F32  1  0.81812500  0.30592600  0.00000000  1
  F  F33  1  0.28865600  0.44048900  0.30541000  1
  F  F34  1  0.29277100  0.32725700  0.00000000  1
  F  F35  1  0.50000000  0.00000000  0.29661600  1
  F  F36  1  0.71134400  0.55951100  0.30541000  1
  F  F37  1  0.69407400  0.81812500  0.50000000  1
  F  F38  1  0.44048900  0.71134400  0.19459000  1
  F  F39  1  0.32725700  0.70722900  0.50000000  1
