# generated using pymatgen
data_Ba3(PS4)2
_symmetry_space_group_name_H-M   'P 1'
_cell_length_a   6.73312363
_cell_length_b   6.73312363
_cell_length_c   8.78790300
_cell_angle_alpha   90.00000000
_cell_angle_beta   90.00000000
_cell_angle_gamma   119.99999633
_symmetry_Int_Tables_number   1
_chemical_formula_structural   Ba3(PS4)2
_chemical_formula_sum   'Ba3 P2 S8'
_cell_volume   345.02382025
_cell_formula_units_Z   1
loop_
 _symmetry_equiv_pos_site_id
 _symmetry_equiv_pos_as_xyz
  1  'x, y, z'
loop_
 _atom_site_type_symbol
 _atom_site_label
 _atom_site_symmetry_multiplicity
 _atom_site_fract_x
 _atom_site_fract_y
 _atom_site_fract_z
 _atom_site_occupancy
  Ba  Ba0  1  0.33333300  0.66666700  0.36485400  1
  Ba  Ba1  1  0.66666700  0.33333300  0.63514600  1
  Ba  Ba2  1  0.00000000  0.00000000  0.00000000  1
  P  P3  1  0.66666700  0.33333300  0.21846300  1
  P  P4  1  0.33333300  0.66666700  0.78153700  1
  S  S5  1  0.82941300  0.65882500  0.30822300  1
  S  S6  1  0.17058700  0.34117500  0.69177700  1
  S  S7  1  0.65882500  0.82941300  0.69177700  1
  S  S8  1  0.33333300  0.66666700  0.01145900  1
  S  S9  1  0.66666700  0.33333300  0.98854100  1
  S  S10  1  0.34117500  0.17058700  0.30822300  1
  S  S11  1  0.82941300  0.17058700  0.30822300  1
  S  S12  1  0.17058700  0.82941300  0.69177700  1
