# generated using pymatgen
data_CaTaAlO5
_symmetry_space_group_name_H-M   'P 1'
_cell_length_a   9.03592200
_cell_length_b   6.72204700
_cell_length_c   7.72740810
_cell_angle_alpha   61.56843995
_cell_angle_beta   90.00000000
_cell_angle_gamma   90.00000000
_symmetry_Int_Tables_number   1
_chemical_formula_structural   CaTaAlO5
_chemical_formula_sum   'Ca4 Ta4 Al4 O20'
_cell_volume   412.75052835
_cell_formula_units_Z   4
loop_
 _symmetry_equiv_pos_site_id
 _symmetry_equiv_pos_as_xyz
  1  'x, y, z'
loop_
 _atom_site_type_symbol
 _atom_site_label
 _atom_site_symmetry_multiplicity
 _atom_site_fract_x
 _atom_site_fract_y
 _atom_site_fract_z
 _atom_site_occupancy
  Ca  Ca0  1  0.66448600  0.70639900  0.28865100  1
  Ca  Ca1  1  0.83551400  0.70639900  0.78865100  1
  Ca  Ca2  1  0.33551400  0.29360100  0.71134900  1
  Ca  Ca3  1  0.16448600  0.29360100  0.21134900  1
  Ta  Ta4  1  0.50000000  0.00000000  0.50000000  1
  Ta  Ta5  1  0.50000000  0.50000000  0.00000000  1
  Ta  Ta6  1  0.00000000  0.50000000  0.50000000  1
  Ta  Ta7  1  0.00000000  0.00000000  0.00000000  1
  Al  Al8  1  0.18533500  0.75955800  0.74946300  1
  Al  Al9  1  0.68533500  0.24044200  0.75053700  1
  Al  Al10  1  0.31466500  0.75955800  0.24946300  1
  Al  Al11  1  0.81466500  0.24044200  0.25053700  1
  O  O12  1  0.80171200  0.00345700  0.87972000  1
  O  O13  1  0.56446000  0.23626300  0.57108000  1
  O  O14  1  0.92372900  0.75647100  0.25345300  1
  O  O15  1  0.43554000  0.76373700  0.42892000  1
  O  O16  1  0.69828800  0.00345700  0.37972000  1
  O  O17  1  0.20275000  0.51485300  0.38496900  1
  O  O18  1  0.42372900  0.24352900  0.24654700  1
  O  O19  1  0.70275000  0.48514700  0.11503100  1
  O  O20  1  0.79725000  0.48514700  0.61503100  1
  O  O21  1  0.55783700  0.28737800  0.90069400  1
  O  O22  1  0.94216300  0.28737800  0.40069400  1
  O  O23  1  0.06446000  0.76373700  0.92892000  1
  O  O24  1  0.93554000  0.23626300  0.07108000  1
  O  O25  1  0.57627100  0.75647100  0.75345300  1
  O  O26  1  0.05783700  0.71262200  0.59930600  1
  O  O27  1  0.44216300  0.71262200  0.09930600  1
  O  O28  1  0.29725000  0.51485300  0.88496900  1
  O  O29  1  0.30171200  0.99654300  0.62028000  1
  O  O30  1  0.07627100  0.24352900  0.74654700  1
  O  O31  1  0.19828800  0.99654300  0.12028000  1
