# generated using pymatgen
data_Nd6S4N3Cl
_symmetry_space_group_name_H-M   'P 1'
_cell_length_a   4.02346700
_cell_length_b   11.82081700
_cell_length_c   26.71453500
_cell_angle_alpha   90.00000000
_cell_angle_beta   90.00000000
_cell_angle_gamma   90.00000000
_symmetry_Int_Tables_number   1
_chemical_formula_structural   Nd6S4N3Cl
_chemical_formula_sum   'Nd24 S16 N12 Cl4'
_cell_volume   1270.56110620
_cell_formula_units_Z   4
loop_
 _symmetry_equiv_pos_site_id
 _symmetry_equiv_pos_as_xyz
  1  'x, y, z'
loop_
 _atom_site_type_symbol
 _atom_site_label
 _atom_site_symmetry_multiplicity
 _atom_site_fract_x
 _atom_site_fract_y
 _atom_site_fract_z
 _atom_site_occupancy
  Nd  Nd0  1  0.25000000  0.38374200  0.29454500  1
  Nd  Nd1  1  0.75000000  0.08736800  0.04049200  1
  Nd  Nd2  1  0.75000000  0.58736800  0.45950800  1
  Nd  Nd3  1  0.25000000  0.23302800  0.66874300  1
  Nd  Nd4  1  0.25000000  0.41263200  0.54049200  1
  Nd  Nd5  1  0.25000000  0.88374200  0.20545500  1
  Nd  Nd6  1  0.75000000  0.55504500  0.19082000  1
  Nd  Nd7  1  0.75000000  0.05504500  0.30918000  1
  Nd  Nd8  1  0.25000000  0.23424600  0.93463800  1
  Nd  Nd9  1  0.75000000  0.61625800  0.70545500  1
  Nd  Nd10  1  0.75000000  0.76697200  0.33125700  1
  Nd  Nd11  1  0.25000000  0.94495500  0.69082000  1
  Nd  Nd12  1  0.25000000  0.94236700  0.42629900  1
  Nd  Nd13  1  0.25000000  0.44236700  0.07370100  1
  Nd  Nd14  1  0.25000000  0.73424600  0.56536200  1
  Nd  Nd15  1  0.75000000  0.26575400  0.43463800  1
  Nd  Nd16  1  0.75000000  0.11625800  0.79454500  1
  Nd  Nd17  1  0.75000000  0.55763300  0.92629900  1
  Nd  Nd18  1  0.75000000  0.05763300  0.57370100  1
  Nd  Nd19  1  0.75000000  0.26697200  0.16874300  1
  Nd  Nd20  1  0.25000000  0.44495500  0.80918000  1
  Nd  Nd21  1  0.75000000  0.76575400  0.06536200  1
  Nd  Nd22  1  0.25000000  0.91263200  0.95950800  1
  Nd  Nd23  1  0.25000000  0.73302800  0.83125700  1
  S  S24  1  0.75000000  0.31699700  0.85856100  1
  S  S25  1  0.25000000  0.21487300  0.10335600  1
  S  S26  1  0.25000000  0.54555200  0.63448600  1
  S  S27  1  0.75000000  0.95444800  0.13448600  1
  S  S28  1  0.75000000  0.28512700  0.60335600  1
  S  S29  1  0.75000000  0.45444800  0.36551400  1
  S  S30  1  0.25000000  0.04555200  0.86551400  1
  S  S31  1  0.25000000  0.71487300  0.39664400  1
  S  S32  1  0.25000000  0.14550100  0.49249000  1
  S  S33  1  0.75000000  0.85449900  0.50751000  1
  S  S34  1  0.75000000  0.81699700  0.64143900  1
  S  S35  1  0.25000000  0.64550100  0.00751000  1
  S  S36  1  0.75000000  0.35449900  0.99249000  1
  S  S37  1  0.25000000  0.18300300  0.35856100  1
  S  S38  1  0.75000000  0.78512700  0.89664400  1
  S  S39  1  0.25000000  0.68300300  0.14143900  1
  N  N40  1  0.75000000  0.40218900  0.49066900  1
  N  N41  1  0.25000000  0.56058100  0.87642400  1
  N  N42  1  0.75000000  0.38871700  0.23952800  1
  N  N43  1  0.75000000  0.93941900  0.37642400  1
  N  N44  1  0.75000000  0.43941900  0.12357600  1
  N  N45  1  0.25000000  0.06058100  0.62357600  1
  N  N46  1  0.25000000  0.11128300  0.73952800  1
  N  N47  1  0.25000000  0.59781100  0.50933100  1
  N  N48  1  0.75000000  0.88871700  0.26047200  1
  N  N49  1  0.75000000  0.90218900  0.00933100  1
  N  N50  1  0.25000000  0.61128300  0.76047200  1
  N  N51  1  0.25000000  0.09781100  0.99066900  1
  Cl  Cl52  1  0.25000000  0.63156300  0.26795900  1
  Cl  Cl53  1  0.75000000  0.36843700  0.73204100  1
  Cl  Cl54  1  0.25000000  0.13156300  0.23204100  1
  Cl  Cl55  1  0.75000000  0.86843700  0.76795900  1
