# generated using pymatgen
data_Dy3CuSnS7
_symmetry_space_group_name_H-M   'P 1'
_cell_length_a   9.75637646
_cell_length_b   9.75637646
_cell_length_c   6.25828200
_cell_angle_alpha   90.00000000
_cell_angle_beta   90.00000000
_cell_angle_gamma   120.00000314
_symmetry_Int_Tables_number   1
_chemical_formula_structural   Dy3CuSnS7
_chemical_formula_sum   'Dy6 Cu2 Sn2 S14'
_cell_volume   515.89681453
_cell_formula_units_Z   2
loop_
 _symmetry_equiv_pos_site_id
 _symmetry_equiv_pos_as_xyz
  1  'x, y, z'
loop_
 _atom_site_type_symbol
 _atom_site_label
 _atom_site_symmetry_multiplicity
 _atom_site_fract_x
 _atom_site_fract_y
 _atom_site_fract_z
 _atom_site_occupancy
  Dy  Dy0  1  0.35938000  0.14799700  0.26727400  1
  Dy  Dy1  1  0.64062000  0.85200300  0.76727400  1
  Dy  Dy2  1  0.85200300  0.21138300  0.26727400  1
  Dy  Dy3  1  0.21138300  0.35938000  0.76727400  1
  Dy  Dy4  1  0.78861700  0.64062000  0.26727400  1
  Dy  Dy5  1  0.14799700  0.78861700  0.76727400  1
  Cu  Cu6  1  0.00000000  0.00000000  0.14988800  1
  Cu  Cu7  1  0.00000000  0.00000000  0.64988800  1
  Sn  Sn8  1  0.66666700  0.33333300  0.83144700  1
  Sn  Sn9  1  0.33333300  0.66666700  0.33144700  1
  S  S10  1  0.66666700  0.33333300  0.44758600  1
  S  S11  1  0.08242800  0.51794900  0.51449400  1
  S  S12  1  0.51794900  0.43552100  0.01449400  1
  S  S13  1  0.11393300  0.85199100  0.18605800  1
  S  S14  1  0.33333300  0.66666700  0.94758600  1
  S  S15  1  0.85199100  0.73805700  0.68605800  1
  S  S16  1  0.91757200  0.48205100  0.01449400  1
  S  S17  1  0.26194300  0.11393300  0.68605800  1
  S  S18  1  0.48205100  0.56447900  0.51449400  1
  S  S19  1  0.88606700  0.14800900  0.68605800  1
  S  S20  1  0.43552100  0.91757200  0.51449400  1
  S  S21  1  0.73805700  0.88606700  0.18605800  1
  S  S22  1  0.14800900  0.26194300  0.18605800  1
  S  S23  1  0.56447900  0.08242800  0.01449400  1
