# generated using pymatgen
data_Y2Si2O7
_symmetry_space_group_name_H-M   'P 1'
_cell_length_a   8.14022800
_cell_length_b   5.11541900
_cell_length_c   7.44895193
_cell_angle_alpha   72.89549532
_cell_angle_beta   90.00000000
_cell_angle_gamma   90.00000000
_symmetry_Int_Tables_number   1
_chemical_formula_structural   Y2Si2O7
_chemical_formula_sum   'Y4 Si4 O14'
_cell_volume   296.46013348
_cell_formula_units_Z   2
loop_
 _symmetry_equiv_pos_site_id
 _symmetry_equiv_pos_as_xyz
  1  'x, y, z'
loop_
 _atom_site_type_symbol
 _atom_site_label
 _atom_site_symmetry_multiplicity
 _atom_site_fract_x
 _atom_site_fract_y
 _atom_site_fract_z
 _atom_site_occupancy
  Y  Y0  1  0.50000000  0.00000000  0.00000000  1
  Y  Y1  1  0.00000000  0.00000000  0.00000000  1
  Y  Y2  1  0.00000000  0.50000000  0.50000000  1
  Y  Y3  1  0.50000000  0.50000000  0.50000000  1
  Si  Si4  1  0.25000000  0.47371300  0.10660700  1
  Si  Si5  1  0.75000000  0.10058600  0.31635400  1
  Si  Si6  1  0.75000000  0.52628700  0.89339300  1
  Si  Si7  1  0.25000000  0.89941400  0.68364600  1
  O  O8  1  0.25000000  0.74056600  0.91455900  1
  O  O9  1  0.25000000  0.18317600  0.05797500  1
  O  O10  1  0.41724200  0.07922400  0.67184400  1
  O  O11  1  0.25000000  0.68469300  0.55996200  1
  O  O12  1  0.91955500  0.46524600  0.79698600  1
  O  O13  1  0.75000000  0.25943400  0.08544100  1
  O  O14  1  0.91724200  0.92077600  0.32815600  1
  O  O15  1  0.75000000  0.31530700  0.44003800  1
  O  O16  1  0.75000000  0.81682400  0.94202500  1
  O  O17  1  0.08044500  0.53475400  0.20301400  1
  O  O18  1  0.58275800  0.92077600  0.32815600  1
  O  O19  1  0.58044500  0.46524600  0.79698600  1
  O  O20  1  0.08275800  0.07922400  0.67184400  1
  O  O21  1  0.41955500  0.53475400  0.20301400  1
