# generated using pymatgen
data_SrSiO3
_symmetry_space_group_name_H-M   'P 1'
_cell_length_a   6.15628400
_cell_length_b   7.54992500
_cell_length_c   13.62593721
_cell_angle_alpha   63.22638311
_cell_angle_beta   90.00000000
_cell_angle_gamma   90.00000000
_symmetry_Int_Tables_number   1
_chemical_formula_structural   SrSiO3
_chemical_formula_sum   'Sr8 Si8 O24'
_cell_volume   565.42969036
_cell_formula_units_Z   8
loop_
 _symmetry_equiv_pos_site_id
 _symmetry_equiv_pos_as_xyz
  1  'x, y, z'
loop_
 _atom_site_type_symbol
 _atom_site_label
 _atom_site_symmetry_multiplicity
 _atom_site_fract_x
 _atom_site_fract_y
 _atom_site_fract_z
 _atom_site_occupancy
  Sr  Sr0  1  0.59090600  0.25749200  0.15843400  1
  Sr  Sr1  1  0.90909400  0.25749200  0.65843400  1
  Sr  Sr2  1  0.39904200  0.21517100  0.87392600  1
  Sr  Sr3  1  0.10095800  0.21517100  0.37392600  1
  Sr  Sr4  1  0.09090600  0.74250800  0.34156600  1
  Sr  Sr5  1  0.40909400  0.74250800  0.84156600  1
  Sr  Sr6  1  0.60095800  0.78482900  0.12607400  1
  Sr  Sr7  1  0.89904200  0.78482900  0.62607400  1
  Si  Si8  1  0.85038500  0.44947100  0.88173600  1
  Si  Si9  1  0.08825200  0.15856700  0.09185400  1
  Si  Si10  1  0.64961500  0.44947100  0.38173600  1
  Si  Si11  1  0.35038500  0.55052900  0.61826400  1
  Si  Si12  1  0.41174800  0.15856700  0.59185400  1
  Si  Si13  1  0.58825200  0.84143300  0.40814600  1
  Si  Si14  1  0.91174800  0.84143300  0.90814600  1
  Si  Si15  1  0.14961500  0.55052900  0.11826400  1
  O  O16  1  0.44175800  0.31579800  0.45791100  1
  O  O17  1  0.94175800  0.68420200  0.04208900  1
  O  O18  1  0.67535600  0.94142600  0.90068500  1
  O  O19  1  0.58906100  0.69125700  0.34481100  1
  O  O20  1  0.08906100  0.30874300  0.15518900  1
  O  O21  1  0.05824200  0.31579800  0.95791100  1
  O  O22  1  0.82464400  0.94142600  0.40068500  1
  O  O23  1  0.32464400  0.05857400  0.09931500  1
  O  O24  1  0.16983200  0.56615400  0.23181300  1
  O  O25  1  0.91093900  0.69125700  0.84481100  1
  O  O26  1  0.37128600  0.60273700  0.04785700  1
  O  O27  1  0.12871400  0.60273700  0.54785700  1
  O  O28  1  0.38504900  0.98779900  0.35202000  1
  O  O29  1  0.83016800  0.43384600  0.76818700  1
  O  O30  1  0.88504900  0.01220100  0.14798000  1
  O  O31  1  0.17535600  0.05857400  0.59931500  1
  O  O32  1  0.41093900  0.30874300  0.65518900  1
  O  O33  1  0.33016800  0.56615400  0.73181300  1
  O  O34  1  0.11495100  0.98779900  0.85202000  1
  O  O35  1  0.55824200  0.68420200  0.54208900  1
  O  O36  1  0.62871400  0.39726300  0.95214300  1
  O  O37  1  0.87128600  0.39726300  0.45214300  1
  O  O38  1  0.66983200  0.43384600  0.26818700  1
  O  O39  1  0.61495100  0.01220100  0.64798000  1
