# generated using pymatgen
data_CsNd(PO3)4
_symmetry_space_group_name_H-M   'P 1'
_cell_length_a   9.15407700
_cell_length_b   10.62609000
_cell_length_c   13.16331949
_cell_angle_alpha   55.94110203
_cell_angle_beta   90.00000000
_cell_angle_gamma   90.00000000
_symmetry_Int_Tables_number   1
_chemical_formula_structural   CsNd(PO3)4
_chemical_formula_sum   'Cs4 Nd4 P16 O48'
_cell_volume   1060.78220580
_cell_formula_units_Z   4
loop_
 _symmetry_equiv_pos_site_id
 _symmetry_equiv_pos_as_xyz
  1  'x, y, z'
loop_
 _atom_site_type_symbol
 _atom_site_label
 _atom_site_symmetry_multiplicity
 _atom_site_fract_x
 _atom_site_fract_y
 _atom_site_fract_z
 _atom_site_occupancy
  Cs  Cs0  1  0.43429400  0.77524800  0.53917500  1
  Cs  Cs1  1  0.93429400  0.22475200  0.96082500  1
  Cs  Cs2  1  0.56570600  0.22475200  0.46082500  1
  Cs  Cs3  1  0.06570600  0.77524800  0.03917500  1
  Nd  Nd4  1  0.27401000  0.31668400  0.18140800  1
  Nd  Nd5  1  0.22599000  0.31668400  0.68140800  1
  Nd  Nd6  1  0.77401000  0.68331600  0.31859200  1
  Nd  Nd7  1  0.72599000  0.68331600  0.81859200  1
  P  P8  1  0.17505900  0.67516000  0.36390300  1
  P  P9  1  0.46975800  0.96702100  0.78504900  1
  P  P10  1  0.82494100  0.32484000  0.63609700  1
  P  P11  1  0.10388500  0.20013700  0.47456600  1
  P  P12  1  0.53024200  0.03297900  0.21495100  1
  P  P13  1  0.40706200  0.61425700  0.24133700  1
  P  P14  1  0.89611500  0.79986300  0.52543400  1
  P  P15  1  0.59293800  0.38574300  0.75866300  1
  P  P16  1  0.90706200  0.38574300  0.25866300  1
  P  P17  1  0.32494100  0.67516000  0.86390300  1
  P  P18  1  0.09293800  0.61425700  0.74133700  1
  P  P19  1  0.39611500  0.20013700  0.97456600  1
  P  P20  1  0.60388500  0.79986300  0.02543400  1
  P  P21  1  0.03024200  0.96702100  0.28504900  1
  P  P22  1  0.96975800  0.03297900  0.71495100  1
  P  P23  1  0.67505900  0.32484000  0.13609700  1
  O  O24  1  0.03687600  0.42215400  0.17698100  1
  O  O25  1  0.03552600  0.63264000  0.33083900  1
  O  O26  1  0.54931100  0.26600400  0.90032200  1
  O  O27  1  0.70657700  0.83780100  0.09359300  1
  O  O28  1  0.96312400  0.57784600  0.82301900  1
  O  O29  1  0.90222500  0.87862700  0.79302100  1
  O  O30  1  0.46084400  0.04624500  0.09539700  1
  O  O31  1  0.45068900  0.73399600  0.09967800  1
  O  O32  1  0.91975000  0.92384200  0.22480500  1
  O  O33  1  0.82360900  0.51402400  0.24778800  1
  O  O34  1  0.08025000  0.07615800  0.77519500  1
  O  O35  1  0.53687600  0.57784600  0.32301900  1
  O  O36  1  0.15989600  0.84025700  0.34424700  1
  O  O37  1  0.24446900  0.57211000  0.48709300  1
  O  O38  1  0.29342300  0.16219900  0.90640700  1
  O  O39  1  0.20657700  0.16219900  0.40640700  1
  O  O40  1  0.58025000  0.92384200  0.72480500  1
  O  O41  1  0.79369300  0.27858500  0.24407200  1
  O  O42  1  0.03915600  0.04624500  0.59539700  1
  O  O43  1  0.25553100  0.57211000  0.98709300  1
  O  O44  1  0.32360900  0.48597600  0.25221200  1
  O  O45  1  0.53915600  0.95375500  0.90460300  1
  O  O46  1  0.75553100  0.42789000  0.51290700  1
  O  O47  1  0.84056200  0.70039200  0.48648600  1
  O  O48  1  0.15943800  0.29960800  0.51351400  1
  O  O49  1  0.79342300  0.83780100  0.59359300  1
  O  O50  1  0.70630700  0.27858500  0.74407200  1
  O  O51  1  0.65989600  0.15974300  0.15575300  1
  O  O52  1  0.84010400  0.15974300  0.65575300  1
  O  O53  1  0.20630700  0.72141500  0.75592800  1
  O  O54  1  0.65943800  0.70039200  0.98648600  1
  O  O55  1  0.59777500  0.87862700  0.29302100  1
  O  O56  1  0.34056200  0.29960800  0.01351400  1
  O  O57  1  0.67639100  0.51402400  0.74778800  1
  O  O58  1  0.40222500  0.12137300  0.70697900  1
  O  O59  1  0.34010400  0.84025700  0.84424700  1
  O  O60  1  0.74446900  0.42789000  0.01290700  1
  O  O61  1  0.46312400  0.42215400  0.67698100  1
  O  O62  1  0.29369300  0.72141500  0.25592800  1
  O  O63  1  0.09777500  0.12137300  0.20697900  1
  O  O64  1  0.46447400  0.63264000  0.83083900  1
  O  O65  1  0.95068900  0.26600400  0.40032200  1
  O  O66  1  0.96447400  0.36736000  0.66916100  1
  O  O67  1  0.04931100  0.73399600  0.59967800  1
  O  O68  1  0.17639100  0.48597600  0.75221200  1
  O  O69  1  0.41975000  0.07615800  0.27519500  1
  O  O70  1  0.53552600  0.36736000  0.16916100  1
  O  O71  1  0.96084400  0.95375500  0.40460300  1
