# generated using pymatgen
data_Zr7(NO2)4
_symmetry_space_group_name_H-M   'P 1'
_cell_length_a   6.27443600
_cell_length_b   6.29643109
_cell_length_c   6.36884036
_cell_angle_alpha   99.71581874
_cell_angle_beta   99.26143251
_cell_angle_gamma   99.23740174
_symmetry_Int_Tables_number   1
_chemical_formula_structural   Zr7(NO2)4
_chemical_formula_sum   'Zr7 N4 O8'
_cell_volume   240.17047356
_cell_formula_units_Z   1
loop_
 _symmetry_equiv_pos_site_id
 _symmetry_equiv_pos_as_xyz
  1  'x, y, z'
loop_
 _atom_site_type_symbol
 _atom_site_label
 _atom_site_symmetry_multiplicity
 _atom_site_fract_x
 _atom_site_fract_y
 _atom_site_fract_z
 _atom_site_occupancy
  Zr  Zr0  1  0.40029100  0.70006900  0.87038100  1
  Zr  Zr1  1  0.99545100  0.00911300  0.01323000  1
  Zr  Zr2  1  0.13406600  0.59981600  0.31783400  1
  Zr  Zr3  1  0.31147500  0.12711100  0.59230300  1
  Zr  Zr4  1  0.70472500  0.86716500  0.38294000  1
  Zr  Zr5  1  0.85747400  0.38187600  0.70336500  1
  Zr  Zr6  1  0.61560200  0.29167100  0.14352400  1
  N  N7  1  0.58028700  0.17799800  0.43510100  1
  N  N8  1  0.67090500  0.93085000  0.06288800  1
  N  N9  1  0.07396500  0.92297400  0.32466900  1
  N  N10  1  0.93801900  0.33806000  0.07069800  1
  O  O11  1  0.81751600  0.56857800  0.43218500  1
  O  O12  1  0.57449800  0.43913200  0.82417400  1
  O  O13  1  0.17214700  0.41141200  0.57329700  1
  O  O14  1  0.90961000  0.05802200  0.68187600  1
  O  O15  1  0.42472600  0.58086700  0.18224700  1
  O  O16  1  0.42657700  0.80758400  0.58022400  1
  O  O17  1  0.32294000  0.09661500  0.92312200  1
  O  O18  1  0.06959300  0.69082000  0.88604300  1
