# generated using pymatgen
data_Cu4GeS4
_symmetry_space_group_name_H-M   'P 1'
_cell_length_a   13.20522400
_cell_length_b   9.82329900
_cell_length_c   10.04083708
_cell_angle_alpha   79.34484162
_cell_angle_beta   90.00000000
_cell_angle_gamma   90.00000000
_symmetry_Int_Tables_number   1
_chemical_formula_structural   Cu4GeS4
_chemical_formula_sum   'Cu32 Ge8 S32'
_cell_volume   1280.02825838
_cell_formula_units_Z   8
loop_
 _symmetry_equiv_pos_site_id
 _symmetry_equiv_pos_as_xyz
  1  'x, y, z'
loop_
 _atom_site_type_symbol
 _atom_site_label
 _atom_site_symmetry_multiplicity
 _atom_site_fract_x
 _atom_site_fract_y
 _atom_site_fract_z
 _atom_site_occupancy
  Cu  Cu0  1  0.63547600  0.33693700  0.92489800  1
  Cu  Cu1  1  0.41164300  0.26964400  0.49071000  1
  Cu  Cu2  1  0.66134600  0.42838000  0.57024200  1
  Cu  Cu3  1  0.54735000  0.11380800  0.02888400  1
  Cu  Cu4  1  0.18681700  0.08183600  0.48765000  1
  Cu  Cu5  1  0.34405700  0.80420000  0.68107600  1
  Cu  Cu6  1  0.81653000  0.83885700  0.78166300  1
  Cu  Cu7  1  0.81318300  0.91816400  0.51235000  1
  Cu  Cu8  1  0.65597600  0.67832000  0.82441700  1
  Cu  Cu9  1  0.33865400  0.57162000  0.42975800  1
  Cu  Cu10  1  0.34402400  0.32168000  0.17558300  1
  Cu  Cu11  1  0.18347000  0.16114300  0.21833700  1
  Cu  Cu12  1  0.84405700  0.19580000  0.81892400  1
  Cu  Cu13  1  0.86452400  0.33693700  0.42489800  1
  Cu  Cu14  1  0.16134600  0.57162000  0.92975800  1
  Cu  Cu15  1  0.15597600  0.32168000  0.67558300  1
  Cu  Cu16  1  0.36452400  0.66306300  0.07510200  1
  Cu  Cu17  1  0.65594300  0.19580000  0.31892400  1
  Cu  Cu18  1  0.04735000  0.88619200  0.47111600  1
  Cu  Cu19  1  0.31653000  0.16114300  0.71833700  1
  Cu  Cu20  1  0.91164300  0.73035600  0.00929000  1
  Cu  Cu21  1  0.84402400  0.67832000  0.32441700  1
  Cu  Cu22  1  0.31318300  0.08183600  0.98765000  1
  Cu  Cu23  1  0.68347000  0.83885700  0.28166300  1
  Cu  Cu24  1  0.13547600  0.66306300  0.57510200  1
  Cu  Cu25  1  0.15594300  0.80420000  0.18107600  1
  Cu  Cu26  1  0.83865400  0.42838000  0.07024200  1
  Cu  Cu27  1  0.08835700  0.26964400  0.99071000  1
  Cu  Cu28  1  0.68681700  0.91816400  0.01235000  1
  Cu  Cu29  1  0.45265000  0.88619200  0.97111600  1
  Cu  Cu30  1  0.58835700  0.73035600  0.50929000  1
  Cu  Cu31  1  0.95265000  0.11380800  0.52888400  1
  Ge  Ge32  1  0.41292100  0.93909400  0.31624700  1
  Ge  Ge33  1  0.91261900  0.55209500  0.69315000  1
  Ge  Ge34  1  0.58738100  0.55209500  0.19315000  1
  Ge  Ge35  1  0.58707900  0.06090600  0.68375300  1
  Ge  Ge36  1  0.08738100  0.44790500  0.30685000  1
  Ge  Ge37  1  0.08707900  0.93909400  0.81624700  1
  Ge  Ge38  1  0.91292100  0.06090600  0.18375300  1
  Ge  Ge39  1  0.41261900  0.44790500  0.80685000  1
  S  S40  1  0.82967200  0.86734200  0.13879900  1
  S  S41  1  0.41547000  0.26437500  0.98911900  1
  S  S42  1  0.17398800  0.62869700  0.36595600  1
  S  S43  1  0.57745100  0.49719900  0.74968200  1
  S  S44  1  0.17508700  0.39478100  0.12304200  1
  S  S45  1  0.17032800  0.13265800  0.86120100  1
  S  S46  1  0.92774600  0.01199000  0.74613500  1
  S  S47  1  0.82462400  0.12084500  0.36541400  1
  S  S48  1  0.57225400  0.01199000  0.24613500  1
  S  S49  1  0.67032800  0.86734200  0.63879900  1
  S  S50  1  0.67537600  0.12084500  0.86541400  1
  S  S51  1  0.67508700  0.60521900  0.37695800  1
  S  S52  1  0.17537600  0.87915500  0.63458600  1
  S  S53  1  0.91818400  0.24259400  0.00821800  1
  S  S54  1  0.32491300  0.39478100  0.62304200  1
  S  S55  1  0.58453000  0.73562500  0.01088100  1
  S  S56  1  0.32967200  0.13265800  0.36120100  1
  S  S57  1  0.42254900  0.50280100  0.25031800  1
  S  S58  1  0.07225400  0.98801000  0.25386500  1
  S  S59  1  0.67398800  0.37130300  0.13404400  1
  S  S60  1  0.32462400  0.87915500  0.13458600  1
  S  S61  1  0.42774600  0.98801000  0.75386500  1
  S  S62  1  0.07745100  0.50280100  0.75031800  1
  S  S63  1  0.91547000  0.73562500  0.51088100  1
  S  S64  1  0.82601200  0.37130300  0.63404400  1
  S  S65  1  0.92254900  0.49719900  0.24968200  1
  S  S66  1  0.82491300  0.60521900  0.87695800  1
  S  S67  1  0.08453000  0.26437500  0.48911900  1
  S  S68  1  0.08181600  0.75740600  0.99178200  1
  S  S69  1  0.58181600  0.24259400  0.50821800  1
  S  S70  1  0.32601200  0.62869700  0.86595600  1
  S  S71  1  0.41818400  0.75740600  0.49178200  1
