# generated using pymatgen
data_PbI2
_symmetry_space_group_name_H-M   'P 1'
_cell_length_a   4.66129398
_cell_length_b   4.66129398
_cell_length_c   22.30473100
_cell_angle_alpha   90.00000000
_cell_angle_beta   90.00000000
_cell_angle_gamma   119.99999977
_symmetry_Int_Tables_number   1
_chemical_formula_structural   PbI2
_chemical_formula_sum   'Pb3 I6'
_cell_volume   419.70158700
_cell_formula_units_Z   3
loop_
 _symmetry_equiv_pos_site_id
 _symmetry_equiv_pos_as_xyz
  1  'x, y, z'
loop_
 _atom_site_type_symbol
 _atom_site_label
 _atom_site_symmetry_multiplicity
 _atom_site_fract_x
 _atom_site_fract_y
 _atom_site_fract_z
 _atom_site_occupancy
  Pb  Pb0  1  0.00000000  0.00000000  0.66621000  1
  Pb  Pb1  1  0.33333300  0.66666700  0.33370600  1
  Pb  Pb2  1  0.33333300  0.66666700  0.00002900  1
  I  I3  1  0.66666700  0.33333300  0.41779800  1
  I  I4  1  0.66666700  0.33333300  0.08433400  1
  I  I5  1  0.33333300  0.66666700  0.58207000  1
  I  I6  1  0.00000000  0.00000000  0.91587900  1
  I  I7  1  0.00000000  0.00000000  0.24956300  1
  I  I8  1  0.66666700  0.33333300  0.75041100  1
