# generated using pymatgen
data_Dy6Ti4Al43
_symmetry_space_group_name_H-M   'P 1'
_cell_length_a   11.06277819
_cell_length_b   11.06277819
_cell_length_c   17.88470600
_cell_angle_alpha   90.00000000
_cell_angle_beta   90.00000000
_cell_angle_gamma   120.00000112
_symmetry_Int_Tables_number   1
_chemical_formula_structural   Dy6Ti4Al43
_chemical_formula_sum   'Dy12 Ti8 Al86'
_cell_volume   1895.57442914
_cell_formula_units_Z   2
loop_
 _symmetry_equiv_pos_site_id
 _symmetry_equiv_pos_as_xyz
  1  'x, y, z'
loop_
 _atom_site_type_symbol
 _atom_site_label
 _atom_site_symmetry_multiplicity
 _atom_site_fract_x
 _atom_site_fract_y
 _atom_site_fract_z
 _atom_site_occupancy
  Dy  Dy0  1  0.52954000  0.52954000  0.59638300  1
  Dy  Dy1  1  0.00000000  0.52954000  0.40361700  1
  Dy  Dy2  1  0.52954000  0.00000000  0.40361700  1
  Dy  Dy3  1  0.00000000  0.47046000  0.90361700  1
  Dy  Dy4  1  0.00000000  0.52954000  0.09638300  1
  Dy  Dy5  1  0.00000000  0.47046000  0.59638300  1
  Dy  Dy6  1  0.52954000  0.00000000  0.09638300  1
  Dy  Dy7  1  0.47046000  0.47046000  0.40361700  1
  Dy  Dy8  1  0.52954000  0.52954000  0.90361700  1
  Dy  Dy9  1  0.47046000  0.00000000  0.59638300  1
  Dy  Dy10  1  0.47046000  0.00000000  0.90361700  1
  Dy  Dy11  1  0.47046000  0.47046000  0.09638300  1
  Ti  Ti12  1  0.00000000  0.72837300  0.25000000  1
  Ti  Ti13  1  0.72837300  0.00000000  0.25000000  1
  Ti  Ti14  1  0.00000000  0.00000000  0.00000000  1
  Ti  Ti15  1  0.72837300  0.72837300  0.75000000  1
  Ti  Ti16  1  0.00000000  0.27162700  0.75000000  1
  Ti  Ti17  1  0.27162700  0.00000000  0.75000000  1
  Ti  Ti18  1  0.00000000  0.00000000  0.50000000  1
  Ti  Ti19  1  0.27162700  0.27162700  0.25000000  1
  Al  Al20  1  0.23491800  0.84107200  0.33530500  1
  Al  Al21  1  0.25318300  0.00000000  0.47111200  1
  Al  Al22  1  0.00000000  0.25318300  0.02888800  1
  Al  Al23  1  0.15647100  0.15647100  0.11652100  1
  Al  Al24  1  0.24787200  0.75212800  0.50000000  1
  Al  Al25  1  0.55373500  0.40310600  0.25000000  1
  Al  Al26  1  0.59689400  0.15062800  0.25000000  1
  Al  Al27  1  0.75212800  0.50425600  0.00000000  1
  Al  Al28  1  0.84352900  0.84352900  0.61652100  1
  Al  Al29  1  0.00000000  0.15647100  0.61652100  1
  Al  Al30  1  0.76508200  0.60615500  0.33530500  1
  Al  Al31  1  0.84107200  0.23491800  0.16469500  1
  Al  Al32  1  0.85282400  0.00000000  0.75000000  1
  Al  Al33  1  0.60615500  0.84107200  0.83530500  1
  Al  Al34  1  0.84937200  0.44626500  0.25000000  1
  Al  Al35  1  0.66666700  0.33333300  0.12546900  1
  Al  Al36  1  0.00000000  0.25318300  0.47111200  1
  Al  Al37  1  0.66666700  0.33333300  0.37453100  1
  Al  Al38  1  0.49574400  0.24787200  0.00000000  1
  Al  Al39  1  0.25318300  0.25318300  0.97111200  1
  Al  Al40  1  0.39384500  0.23491800  0.66469500  1
  Al  Al41  1  0.33333300  0.66666700  0.62546900  1
  Al  Al42  1  0.59689400  0.44626500  0.75000000  1
  Al  Al43  1  0.76508200  0.60615500  0.16469500  1
  Al  Al44  1  0.60615500  0.76508200  0.33530500  1
  Al  Al45  1  0.33333300  0.66666700  0.87453100  1
  Al  Al46  1  0.39384500  0.23491800  0.83530500  1
  Al  Al47  1  0.25318300  0.00000000  0.02888800  1
  Al  Al48  1  0.25318300  0.25318300  0.52888800  1
  Al  Al49  1  0.14717600  0.14717600  0.75000000  1
  Al  Al50  1  0.15647100  0.15647100  0.38347900  1
  Al  Al51  1  0.74681700  0.74681700  0.47111200  1
  Al  Al52  1  0.00000000  0.14717600  0.25000000  1
  Al  Al53  1  0.84352900  0.00000000  0.11652100  1
  Al  Al54  1  0.76508200  0.15892800  0.66469500  1
  Al  Al55  1  0.24787200  0.75212800  0.00000000  1
  Al  Al56  1  0.39384500  0.15892800  0.16469500  1
  Al  Al57  1  0.60615500  0.84107200  0.66469500  1
  Al  Al58  1  0.00000000  0.84352900  0.38347900  1
  Al  Al59  1  0.00000000  0.15647100  0.88347900  1
  Al  Al60  1  0.84352900  0.84352900  0.88347900  1
  Al  Al61  1  0.00000000  0.84352900  0.11652100  1
  Al  Al62  1  0.55373500  0.15062800  0.75000000  1
  Al  Al63  1  0.15892800  0.76508200  0.83530500  1
  Al  Al64  1  0.00000000  0.85282400  0.75000000  1
  Al  Al65  1  0.74681700  0.74681700  0.02888800  1
  Al  Al66  1  0.84107200  0.60615500  0.83530500  1
  Al  Al67  1  0.44626500  0.59689400  0.75000000  1
  Al  Al68  1  0.14717600  0.00000000  0.25000000  1
  Al  Al69  1  0.85282400  0.85282400  0.25000000  1
  Al  Al70  1  0.66666700  0.33333300  0.87453100  1
  Al  Al71  1  0.15892800  0.39384500  0.33530500  1
  Al  Al72  1  0.84352900  0.00000000  0.38347900  1
  Al  Al73  1  0.15892800  0.39384500  0.16469500  1
  Al  Al74  1  0.15062800  0.59689400  0.25000000  1
  Al  Al75  1  0.75212800  0.50425600  0.50000000  1
  Al  Al76  1  0.84937200  0.40310600  0.75000000  1
  Al  Al77  1  0.15062800  0.55373500  0.75000000  1
  Al  Al78  1  0.23491800  0.39384500  0.83530500  1
  Al  Al79  1  0.15647100  0.00000000  0.61652100  1
  Al  Al80  1  0.44626500  0.84937200  0.25000000  1
  Al  Al81  1  0.24787200  0.49574400  0.00000000  1
  Al  Al82  1  0.74681700  0.00000000  0.52888800  1
  Al  Al83  1  0.00000000  0.74681700  0.97111200  1
  Al  Al84  1  0.00000000  0.74681700  0.52888800  1
  Al  Al85  1  0.74681700  0.00000000  0.97111200  1
  Al  Al86  1  0.50425600  0.75212800  0.50000000  1
  Al  Al87  1  0.76508200  0.15892800  0.83530500  1
  Al  Al88  1  0.15647100  0.00000000  0.88347900  1
  Al  Al89  1  0.39384500  0.15892800  0.33530500  1
  Al  Al90  1  0.50425600  0.75212800  0.00000000  1
  Al  Al91  1  0.23491800  0.39384500  0.66469500  1
  Al  Al92  1  0.23491800  0.84107200  0.16469500  1
  Al  Al93  1  0.24787200  0.49574400  0.50000000  1
  Al  Al94  1  0.75212800  0.24787200  0.00000000  1
  Al  Al95  1  0.60615500  0.76508200  0.16469500  1
  Al  Al96  1  0.40310600  0.55373500  0.25000000  1
  Al  Al97  1  0.40310600  0.84937200  0.75000000  1
  Al  Al98  1  0.15892800  0.76508200  0.66469500  1
  Al  Al99  1  0.66666700  0.33333300  0.62546900  1
  Al  Al100  1  0.33333300  0.66666700  0.12546900  1
  Al  Al101  1  0.33333300  0.66666700  0.37453100  1
  Al  Al102  1  0.84107200  0.23491800  0.33530500  1
  Al  Al103  1  0.75212800  0.24787200  0.50000000  1
  Al  Al104  1  0.49574400  0.24787200  0.50000000  1
  Al  Al105  1  0.84107200  0.60615500  0.66469500  1
