# generated using pymatgen
data_NdSnRh
_symmetry_space_group_name_H-M   'P 1'
_cell_length_a   7.49636789
_cell_length_b   7.49636789
_cell_length_c   4.18519400
_cell_angle_alpha   90.00000000
_cell_angle_beta   90.00000000
_cell_angle_gamma   119.99999905
_symmetry_Int_Tables_number   1
_chemical_formula_structural   NdSnRh
_chemical_formula_sum   'Nd3 Sn3 Rh3'
_cell_volume   203.67982522
_cell_formula_units_Z   3
loop_
 _symmetry_equiv_pos_site_id
 _symmetry_equiv_pos_as_xyz
  1  'x, y, z'
loop_
 _atom_site_type_symbol
 _atom_site_label
 _atom_site_symmetry_multiplicity
 _atom_site_fract_x
 _atom_site_fract_y
 _atom_site_fract_z
 _atom_site_occupancy
  Nd  Nd0  1  0.00000000  0.58670800  0.00000000  1
  Nd  Nd1  1  0.41329200  0.41329200  0.00000000  1
  Nd  Nd2  1  0.58670800  0.00000000  0.00000000  1
  Sn  Sn3  1  0.75064400  0.75064400  0.50000000  1
  Sn  Sn4  1  0.00000000  0.24935600  0.50000000  1
  Sn  Sn5  1  0.24935600  0.00000000  0.50000000  1
  Rh  Rh6  1  0.00000000  0.00000000  0.00000000  1
  Rh  Rh7  1  0.66666700  0.33333300  0.50000000  1
  Rh  Rh8  1  0.33333300  0.66666700  0.50000000  1
