# generated using pymatgen
data_Cs3Sb2Cl9
_symmetry_space_group_name_H-M   'P 1'
_cell_length_a   7.80929711
_cell_length_b   7.80929711
_cell_length_c   9.57375000
_cell_angle_alpha   90.00000000
_cell_angle_beta   90.00000000
_cell_angle_gamma   120.00000938
_symmetry_Int_Tables_number   1
_chemical_formula_structural   Cs3Sb2Cl9
_chemical_formula_sum   'Cs3 Sb2 Cl9'
_cell_volume   505.63434460
_cell_formula_units_Z   1
loop_
 _symmetry_equiv_pos_site_id
 _symmetry_equiv_pos_as_xyz
  1  'x, y, z'
loop_
 _atom_site_type_symbol
 _atom_site_label
 _atom_site_symmetry_multiplicity
 _atom_site_fract_x
 _atom_site_fract_y
 _atom_site_fract_z
 _atom_site_occupancy
  Cs  Cs0  1  0.33333300  0.66666700  0.32567200  1
  Cs  Cs1  1  0.66666700  0.33333300  0.67432800  1
  Cs  Cs2  1  0.00000000  0.00000000  0.00000000  1
  Sb  Sb3  1  0.33333300  0.66666700  0.82005800  1
  Sb  Sb4  1  0.66666700  0.33333300  0.17994200  1
  Cl  Cl5  1  0.53012300  0.53012300  0.00000000  1
  Cl  Cl6  1  0.35597100  0.20333000  0.32529500  1
  Cl  Cl7  1  0.00000000  0.46987700  0.00000000  1
  Cl  Cl8  1  0.84735900  0.64402900  0.32529500  1
  Cl  Cl9  1  0.15264100  0.79667000  0.67470500  1
  Cl  Cl10  1  0.46987700  0.00000000  0.00000000  1
  Cl  Cl11  1  0.20333000  0.35597100  0.67470500  1
  Cl  Cl12  1  0.79667000  0.15264100  0.32529500  1
  Cl  Cl13  1  0.64402900  0.84735900  0.67470500  1
