# generated using pymatgen
data_La5C2I9
_symmetry_space_group_name_H-M   'P 1'
_cell_length_a   8.15459100
_cell_length_b   10.27477156
_cell_length_c   14.62886719
_cell_angle_alpha   79.45143402
_cell_angle_beta   80.79367811
_cell_angle_gamma   85.29255535
_symmetry_Int_Tables_number   1
_chemical_formula_structural   La5C2I9
_chemical_formula_sum   'La10 C4 I18'
_cell_volume   1187.70580435
_cell_formula_units_Z   2
loop_
 _symmetry_equiv_pos_site_id
 _symmetry_equiv_pos_as_xyz
  1  'x, y, z'
loop_
 _atom_site_type_symbol
 _atom_site_label
 _atom_site_symmetry_multiplicity
 _atom_site_fract_x
 _atom_site_fract_y
 _atom_site_fract_z
 _atom_site_occupancy
  La  La0  1  0.77821600  0.36338400  0.26322500  1
  La  La1  1  0.15897600  0.53079800  0.30131600  1
  La  La2  1  0.23558500  0.33938300  0.08129200  1
  La  La3  1  0.95059300  0.03604100  0.17545900  1
  La  La4  1  0.82387600  0.85351400  0.63997600  1
  La  La5  1  0.22178400  0.63661600  0.73677500  1
  La  La6  1  0.76441500  0.66061700  0.91870800  1
  La  La7  1  0.17612400  0.14648600  0.36002400  1
  La  La8  1  0.84102400  0.46920200  0.69868400  1
  La  La9  1  0.04940700  0.96395900  0.82454100  1
  C  C10  1  0.95920600  0.77560900  0.78282800  1
  C  C11  1  0.09262800  0.34546500  0.24203100  1
  C  C12  1  0.90737200  0.65453500  0.75796900  1
  C  C13  1  0.04079400  0.22439100  0.21717200  1
  I  I14  1  0.24942300  0.86255700  0.27344700  1
  I  I15  1  0.80211500  0.00687300  0.41163600  1
  I  I16  1  0.90789500  0.34939100  0.47250000  1
  I  I17  1  0.45923700  0.84551500  0.80074200  1
  I  I18  1  0.57660600  0.64976700  0.57714700  1
  I  I19  1  0.50658200  0.44808600  0.86458200  1
  I  I20  1  0.19788500  0.99312700  0.58836400  1
  I  I21  1  0.75216800  0.94073800  0.00111900  1
  I  I22  1  0.19362400  0.32029000  0.72556800  1
  I  I23  1  0.09210500  0.65060900  0.52750000  1
  I  I24  1  0.80637600  0.67971000  0.27443200  1
  I  I25  1  0.42339400  0.35023300  0.42285300  1
  I  I26  1  0.24783200  0.05926200  0.99888100  1
  I  I27  1  0.49341800  0.55191400  0.13541800  1
  I  I28  1  0.11704700  0.65723500  0.00172100  1
  I  I29  1  0.88295300  0.34276500  0.99827900  1
  I  I30  1  0.54076300  0.15448500  0.19925800  1
  I  I31  1  0.75057700  0.13744300  0.72655300  1
