# generated using pymatgen
data_KSm2Sb3Se8
_symmetry_space_group_name_H-M   'P 1'
_cell_length_a   4.13961000
_cell_length_b   17.13508800
_cell_length_c   22.31865900
_cell_angle_alpha   90.00000000
_cell_angle_beta   90.00000000
_cell_angle_gamma   90.00000000
_symmetry_Int_Tables_number   1
_chemical_formula_structural   KSm2Sb3Se8
_chemical_formula_sum   'K4 Sm8 Sb12 Se32'
_cell_volume   1583.12010152
_cell_formula_units_Z   4
loop_
 _symmetry_equiv_pos_site_id
 _symmetry_equiv_pos_as_xyz
  1  'x, y, z'
loop_
 _atom_site_type_symbol
 _atom_site_label
 _atom_site_symmetry_multiplicity
 _atom_site_fract_x
 _atom_site_fract_y
 _atom_site_fract_z
 _atom_site_occupancy
  K  K0  1  0.75000000  0.79773600  0.74407000  1
  K  K1  1  0.25000000  0.20226400  0.25593000  1
  K  K2  1  0.75000000  0.29773600  0.75593000  1
  K  K3  1  0.25000000  0.70226400  0.24407000  1
  Sm  Sm4  1  0.75000000  0.46328500  0.58979000  1
  Sm  Sm5  1  0.75000000  0.96328500  0.91021000  1
  Sm  Sm6  1  0.25000000  0.79115600  0.04454500  1
  Sm  Sm7  1  0.25000000  0.03671500  0.08979000  1
  Sm  Sm8  1  0.25000000  0.29115600  0.45545500  1
  Sm  Sm9  1  0.75000000  0.20884400  0.95545500  1
  Sm  Sm10  1  0.75000000  0.70884400  0.54454500  1
  Sm  Sm11  1  0.25000000  0.53671500  0.41021000  1
  Sb  Sb12  1  0.25000000  0.92282700  0.58689100  1
  Sb  Sb13  1  0.25000000  0.53587700  0.74218300  1
  Sb  Sb14  1  0.25000000  0.85535100  0.40052600  1
  Sb  Sb15  1  0.75000000  0.14464900  0.59947400  1
  Sb  Sb16  1  0.25000000  0.35535100  0.09947400  1
  Sb  Sb17  1  0.25000000  0.03587700  0.75781700  1
  Sb  Sb18  1  0.75000000  0.96412300  0.24218300  1
  Sb  Sb19  1  0.75000000  0.07717300  0.41310900  1
  Sb  Sb20  1  0.75000000  0.64464900  0.90052600  1
  Sb  Sb21  1  0.75000000  0.57717300  0.08689100  1
  Sb  Sb22  1  0.75000000  0.46412300  0.25781700  1
  Sb  Sb23  1  0.25000000  0.42282700  0.91310900  1
  Se  Se24  1  0.25000000  0.39692600  0.32406700  1
  Se  Se25  1  0.25000000  0.71165000  0.44733100  1
  Se  Se26  1  0.25000000  0.11808500  0.49747400  1
  Se  Se27  1  0.25000000  0.17897600  0.67630900  1
  Se  Se28  1  0.25000000  0.61808500  0.00252600  1
  Se  Se29  1  0.75000000  0.78835000  0.94733100  1
  Se  Se30  1  0.25000000  0.02814000  0.32967600  1
  Se  Se31  1  0.75000000  0.72219800  0.12569500  1
  Se  Se32  1  0.75000000  0.38191500  0.99747400  1
  Se  Se33  1  0.75000000  0.82102400  0.32369100  1
  Se  Se34  1  0.75000000  0.10307400  0.82406700  1
  Se  Se35  1  0.75000000  0.42563800  0.45806300  1
  Se  Se36  1  0.25000000  0.90665300  0.83068600  1
  Se  Se37  1  0.75000000  0.32102400  0.17630900  1
  Se  Se38  1  0.25000000  0.52814000  0.17032400  1
  Se  Se39  1  0.75000000  0.60307400  0.67593300  1
  Se  Se40  1  0.25000000  0.40665300  0.66931400  1
  Se  Se41  1  0.25000000  0.27780200  0.87430500  1
  Se  Se42  1  0.75000000  0.47186000  0.82967600  1
  Se  Se43  1  0.25000000  0.57436200  0.54193700  1
  Se  Se44  1  0.75000000  0.09334700  0.16931400  1
  Se  Se45  1  0.25000000  0.21165000  0.05266900  1
  Se  Se46  1  0.25000000  0.67897600  0.82369100  1
  Se  Se47  1  0.25000000  0.89692600  0.17593300  1
  Se  Se48  1  0.75000000  0.22219800  0.37430500  1
  Se  Se49  1  0.75000000  0.88191500  0.50252600  1
  Se  Se50  1  0.75000000  0.59334700  0.33068600  1
  Se  Se51  1  0.75000000  0.97186000  0.67032400  1
  Se  Se52  1  0.25000000  0.77780200  0.62569500  1
  Se  Se53  1  0.25000000  0.07436200  0.95806300  1
  Se  Se54  1  0.75000000  0.92563800  0.04193700  1
  Se  Se55  1  0.75000000  0.28835000  0.55266900  1
