# generated using pymatgen
data_TbInPt
_symmetry_space_group_name_H-M   'P 1'
_cell_length_a   7.73105832
_cell_length_b   7.73105832
_cell_length_c   3.85500800
_cell_angle_alpha   90.00000000
_cell_angle_beta   90.00000000
_cell_angle_gamma   120.00000277
_symmetry_Int_Tables_number   1
_chemical_formula_structural   TbInPt
_chemical_formula_sum   'Tb3 In3 Pt3'
_cell_volume   199.54176185
_cell_formula_units_Z   3
loop_
 _symmetry_equiv_pos_site_id
 _symmetry_equiv_pos_as_xyz
  1  'x, y, z'
loop_
 _atom_site_type_symbol
 _atom_site_label
 _atom_site_symmetry_multiplicity
 _atom_site_fract_x
 _atom_site_fract_y
 _atom_site_fract_z
 _atom_site_occupancy
  Tb  Tb0  1  0.40621300  0.00000000  0.00000000  1
  Tb  Tb1  1  0.00000000  0.40621300  0.00000000  1
  Tb  Tb2  1  0.59378700  0.59378700  0.00000000  1
  In  In3  1  0.26093500  0.26093500  0.50000000  1
  In  In4  1  0.00000000  0.73906500  0.50000000  1
  In  In5  1  0.73906500  0.00000000  0.50000000  1
  Pt  Pt6  1  0.00000000  0.00000000  0.00000000  1
  Pt  Pt7  1  0.66666700  0.33333300  0.50000000  1
  Pt  Pt8  1  0.33333300  0.66666700  0.50000000  1
