# generated using pymatgen
data_CaGe2
_symmetry_space_group_name_H-M   'P 1'
_cell_length_a   5.75019896
_cell_length_b   5.75019896
_cell_length_c   5.75019948
_cell_angle_alpha   40.82662612
_cell_angle_beta   40.82662612
_cell_angle_gamma   40.82662889
_symmetry_Int_Tables_number   1
_chemical_formula_structural   CaGe2
_chemical_formula_sum   'Ca1 Ge2'
_cell_volume   73.33910048
_cell_formula_units_Z   1
loop_
 _symmetry_equiv_pos_site_id
 _symmetry_equiv_pos_as_xyz
  1  'x, y, z'
loop_
 _atom_site_type_symbol
 _atom_site_label
 _atom_site_symmetry_multiplicity
 _atom_site_fract_x
 _atom_site_fract_y
 _atom_site_fract_z
 _atom_site_occupancy
  Ca  Ca0  1  0.00000000  0.00000000  0.00000000  1
  Ge  Ge1  1  0.79795200  0.79795200  0.79795200  1
  Ge  Ge2  1  0.20204800  0.20204800  0.20204800  1
