# generated using pymatgen
data_SiC
_symmetry_space_group_name_H-M   'P 1'
_cell_length_a   3.09414014
_cell_length_b   3.09414014
_cell_length_c   40.48348900
_cell_angle_alpha   90.00000000
_cell_angle_beta   90.00000000
_cell_angle_gamma   120.00000291
_symmetry_Int_Tables_number   1
_chemical_formula_structural   SiC
_chemical_formula_sum   'Si16 C16'
_cell_volume   335.65143793
_cell_formula_units_Z   16
loop_
 _symmetry_equiv_pos_site_id
 _symmetry_equiv_pos_as_xyz
  1  'x, y, z'
loop_
 _atom_site_type_symbol
 _atom_site_label
 _atom_site_symmetry_multiplicity
 _atom_site_fract_x
 _atom_site_fract_y
 _atom_site_fract_z
 _atom_site_occupancy
  Si  Si0  1  0.33333300  0.66666700  0.81248500  1
  Si  Si1  1  0.33333300  0.66666700  0.56251600  1
  Si  Si2  1  0.00000000  0.00000000  0.37501300  1
  Si  Si3  1  0.66666700  0.33333300  0.93743800  1
  Si  Si4  1  0.66666700  0.33333300  0.06251600  1
  Si  Si5  1  0.00000000  0.00000000  0.24997400  1
  Si  Si6  1  0.00000000  0.00000000  0.87501300  1
  Si  Si7  1  0.66666700  0.33333300  0.68747900  1
  Si  Si8  1  0.66666700  0.33333300  0.49998200  1
  Si  Si9  1  0.33333300  0.66666700  0.43743800  1
  Si  Si10  1  0.33333300  0.66666700  0.99998200  1
  Si  Si11  1  0.00000000  0.00000000  0.74997400  1
  Si  Si12  1  0.66666700  0.33333300  0.31248500  1
  Si  Si13  1  0.00000000  0.00000000  0.62494200  1
  Si  Si14  1  0.33333300  0.66666700  0.18747900  1
  Si  Si15  1  0.00000000  0.00000000  0.12494200  1
  C  C16  1  0.00000000  0.00000000  0.17181800  1
  C  C17  1  0.33333300  0.66666700  0.48431600  1
  C  C18  1  0.66666700  0.33333300  0.35947700  1
  C  C19  1  0.33333300  0.66666700  0.04697800  1
  C  C20  1  0.66666700  0.33333300  0.54697800  1
  C  C21  1  0.00000000  0.00000000  0.92188300  1
  C  C22  1  0.33333300  0.66666700  0.60938100  1
  C  C23  1  0.66666700  0.33333300  0.73447400  1
  C  C24  1  0.00000000  0.00000000  0.42188300  1
  C  C25  1  0.66666700  0.33333300  0.98431600  1
  C  C26  1  0.00000000  0.00000000  0.79680400  1
  C  C27  1  0.66666700  0.33333300  0.10938100  1
  C  C28  1  0.33333300  0.66666700  0.85947700  1
  C  C29  1  0.00000000  0.00000000  0.29680400  1
  C  C30  1  0.00000000  0.00000000  0.67181800  1
  C  C31  1  0.33333300  0.66666700  0.23447400  1
