# generated using pymatgen
data_Cs2Na(C2N3)3
_symmetry_space_group_name_H-M   'P 1'
_cell_length_a   7.24003232
_cell_length_b   7.24003232
_cell_length_c   14.84982800
_cell_angle_alpha   90.00000000
_cell_angle_beta   90.00000000
_cell_angle_gamma   120.00000288
_symmetry_Int_Tables_number   1
_chemical_formula_structural   Cs2Na(C2N3)3
_chemical_formula_sum   'Cs4 Na2 C12 N18'
_cell_volume   674.11354225
_cell_formula_units_Z   2
loop_
 _symmetry_equiv_pos_site_id
 _symmetry_equiv_pos_as_xyz
  1  'x, y, z'
loop_
 _atom_site_type_symbol
 _atom_site_label
 _atom_site_symmetry_multiplicity
 _atom_site_fract_x
 _atom_site_fract_y
 _atom_site_fract_z
 _atom_site_occupancy
  Cs  Cs0  1  0.33333300  0.66666700  0.06954600  1
  Cs  Cs1  1  0.66666700  0.33333300  0.93045400  1
  Cs  Cs2  1  0.33333300  0.66666700  0.43045400  1
  Cs  Cs3  1  0.66666700  0.33333300  0.56954600  1
  Na  Na4  1  0.00000000  0.00000000  0.00000000  1
  Na  Na5  1  0.00000000  0.00000000  0.50000000  1
  C  C6  1  0.85772200  0.19770600  0.32756800  1
  C  C7  1  0.85772200  0.19770600  0.17243200  1
  C  C8  1  0.66001600  0.85772200  0.82756800  1
  C  C9  1  0.33998400  0.14227800  0.32756800  1
  C  C10  1  0.14227800  0.80229400  0.67243200  1
  C  C11  1  0.14227800  0.80229400  0.82756800  1
  C  C12  1  0.66001600  0.85772200  0.67243200  1
  C  C13  1  0.80229400  0.66001600  0.32756800  1
  C  C14  1  0.80229400  0.66001600  0.17243200  1
  C  C15  1  0.19770600  0.33998400  0.67243200  1
  C  C16  1  0.33998400  0.14227800  0.17243200  1
  C  C17  1  0.19770600  0.33998400  0.82756800  1
  N  N18  1  0.86574500  0.67260900  0.40208800  1
  N  N19  1  0.32739100  0.19313600  0.40208800  1
  N  N20  1  0.71281400  0.64401500  0.25000000  1
  N  N21  1  0.80686400  0.13425500  0.40208800  1
  N  N22  1  0.67260900  0.80686400  0.59791200  1
  N  N23  1  0.67260900  0.80686400  0.90208800  1
  N  N24  1  0.28718600  0.35598500  0.75000000  1
  N  N25  1  0.13425500  0.32739100  0.90208800  1
  N  N26  1  0.19313600  0.86574500  0.90208800  1
  N  N27  1  0.19313600  0.86574500  0.59791200  1
  N  N28  1  0.06879900  0.71281400  0.75000000  1
  N  N29  1  0.13425500  0.32739100  0.59791200  1
  N  N30  1  0.64401500  0.93120100  0.75000000  1
  N  N31  1  0.80686400  0.13425500  0.09791200  1
  N  N32  1  0.35598500  0.06879900  0.25000000  1
  N  N33  1  0.32739100  0.19313600  0.09791200  1
  N  N34  1  0.93120100  0.28718600  0.25000000  1
  N  N35  1  0.86574500  0.67260900  0.09791200  1
