# generated using pymatgen
data_Pr5C2Cl9
_symmetry_space_group_name_H-M   'P 1'
_cell_length_a   8.61080500
_cell_length_b   8.68526928
_cell_length_c   12.16669240
_cell_angle_alpha   84.19949601
_cell_angle_beta   85.01359588
_cell_angle_gamma   61.33451799
_symmetry_Int_Tables_number   1
_chemical_formula_structural   Pr5C2Cl9
_chemical_formula_sum   'Pr10 C4 Cl18'
_cell_volume   793.53091610
_cell_formula_units_Z   2
loop_
 _symmetry_equiv_pos_site_id
 _symmetry_equiv_pos_as_xyz
  1  'x, y, z'
loop_
 _atom_site_type_symbol
 _atom_site_label
 _atom_site_symmetry_multiplicity
 _atom_site_fract_x
 _atom_site_fract_y
 _atom_site_fract_z
 _atom_site_occupancy
  Pr  Pr0  1  0.13136400  0.27078700  0.26775200  1
  Pr  Pr1  1  0.77300900  0.07259600  0.25750600  1
  Pr  Pr2  1  0.79688200  0.31411800  0.50219300  1
  Pr  Pr3  1  0.20311800  0.68588200  0.49780700  1
  Pr  Pr4  1  0.60714600  0.59669600  0.22096300  1
  Pr  Pr5  1  0.39285400  0.40330400  0.77903700  1
  Pr  Pr6  1  0.22699100  0.92740400  0.74249400  1
  Pr  Pr7  1  0.89711600  0.29762900  0.99902400  1
  Pr  Pr8  1  0.10288400  0.70237100  0.00097600  1
  Pr  Pr9  1  0.86863600  0.72921300  0.73224800  1
  C  C10  1  0.85791800  0.30237000  0.19061800  1
  C  C11  1  0.82987900  0.31078400  0.30938700  1
  C  C12  1  0.17012100  0.68921600  0.69061300  1
  C  C13  1  0.14208200  0.69763000  0.80938200  1
  Cl  Cl14  1  0.15830300  0.87087500  0.26077300  1
  Cl  Cl15  1  0.40004600  0.40826800  0.27671900  1
  Cl  Cl16  1  0.78568500  0.66932400  0.96678000  1
  Cl  Cl17  1  0.91949900  0.65776900  0.22807900  1
  Cl  Cl18  1  0.59995400  0.59173200  0.72328100  1
  Cl  Cl19  1  0.21431500  0.33067600  0.03322000  1
  Cl  Cl20  1  0.21656400  0.96090700  0.97536900  1
  Cl  Cl21  1  0.51154600  0.01489100  0.76836600  1
  Cl  Cl22  1  0.48845400  0.98510900  0.23163400  1
  Cl  Cl23  1  0.84169700  0.12912500  0.73922700  1
  Cl  Cl24  1  0.17580400  0.05086400  0.50682500  1
  Cl  Cl25  1  0.78343600  0.03909300  0.02463100  1
  Cl  Cl26  1  0.54204500  0.67164200  0.44740500  1
  Cl  Cl27  1  0.08050100  0.34223100  0.77192100  1
  Cl  Cl28  1  0.50000000  0.50000000  0.00000000  1
  Cl  Cl29  1  0.82419600  0.94913600  0.49317500  1
  Cl  Cl30  1  0.00000000  0.50000000  0.50000000  1
  Cl  Cl31  1  0.45795500  0.32835800  0.55259500  1
