# generated using pymatgen
data_CuHgSeBr
_symmetry_space_group_name_H-M   'P 1'
_cell_length_a   4.32798900
_cell_length_b   9.82333500
_cell_length_c   10.30739900
_cell_angle_alpha   90.00000000
_cell_angle_beta   90.00000000
_cell_angle_gamma   90.00000000
_symmetry_Int_Tables_number   1
_chemical_formula_structural   CuHgSeBr
_chemical_formula_sum   'Cu4 Hg4 Se4 Br4'
_cell_volume   438.22201458
_cell_formula_units_Z   4
loop_
 _symmetry_equiv_pos_site_id
 _symmetry_equiv_pos_as_xyz
  1  'x, y, z'
loop_
 _atom_site_type_symbol
 _atom_site_label
 _atom_site_symmetry_multiplicity
 _atom_site_fract_x
 _atom_site_fract_y
 _atom_site_fract_z
 _atom_site_occupancy
  Cu  Cu0  1  0.00000000  0.21759600  0.09897900  1
  Cu  Cu1  1  0.00000000  0.21759600  0.40102100  1
  Cu  Cu2  1  0.00000000  0.78240400  0.59897900  1
  Cu  Cu3  1  0.00000000  0.78240400  0.90102100  1
  Hg  Hg4  1  0.50000000  0.79008800  0.25000000  1
  Hg  Hg5  1  0.50000000  0.50000000  0.50000000  1
  Hg  Hg6  1  0.50000000  0.20991200  0.75000000  1
  Hg  Hg7  1  0.50000000  0.50000000  0.00000000  1
  Se  Se8  1  0.50000000  0.75941700  0.49769200  1
  Se  Se9  1  0.50000000  0.24058300  0.50230800  1
  Se  Se10  1  0.50000000  0.75941700  0.00230800  1
  Se  Se11  1  0.50000000  0.24058300  0.99769200  1
  Br  Br12  1  0.00000000  0.97771700  0.75000000  1
  Br  Br13  1  0.00000000  0.02228300  0.25000000  1
  Br  Br14  1  0.00000000  0.56702400  0.75000000  1
  Br  Br15  1  0.00000000  0.43297600  0.25000000  1
