# generated using pymatgen
data_Nb3TeI7
_symmetry_space_group_name_H-M   'P 1'
_cell_length_a   7.73431452
_cell_length_b   7.73431452
_cell_length_c   7.24533600
_cell_angle_alpha   90.00000000
_cell_angle_beta   90.00000000
_cell_angle_gamma   120.00000441
_symmetry_Int_Tables_number   1
_chemical_formula_structural   Nb3TeI7
_chemical_formula_sum   'Nb3 Te1 I7'
_cell_volume   375.34687137
_cell_formula_units_Z   1
loop_
 _symmetry_equiv_pos_site_id
 _symmetry_equiv_pos_as_xyz
  1  'x, y, z'
loop_
 _atom_site_type_symbol
 _atom_site_label
 _atom_site_symmetry_multiplicity
 _atom_site_fract_x
 _atom_site_fract_y
 _atom_site_fract_z
 _atom_site_occupancy
  Nb  Nb0  1  0.26478000  0.13239000  0.49860800  1
  Nb  Nb1  1  0.86761000  0.13239000  0.49860800  1
  Nb  Nb2  1  0.86761000  0.73522000  0.49860800  1
  Te  Te3  1  0.00000000  0.00000000  0.21120900  1
  I  I4  1  0.66515800  0.83257900  0.75479700  1
  I  I5  1  0.49923600  0.99847200  0.28550700  1
  I  I6  1  0.16742100  0.83257900  0.75479700  1
  I  I7  1  0.00152800  0.50076400  0.28550700  1
  I  I8  1  0.66666700  0.33333300  0.70165400  1
  I  I9  1  0.16742100  0.33484200  0.75479700  1
  I  I10  1  0.49923600  0.50076400  0.28550700  1
