# generated using pymatgen
data_RbGeI3
_symmetry_space_group_name_H-M   'P 1'
_cell_length_a   4.59912900
_cell_length_b   10.41364600
_cell_length_c   17.19098000
_cell_angle_alpha   90.00000000
_cell_angle_beta   90.00000000
_cell_angle_gamma   90.00000000
_symmetry_Int_Tables_number   1
_chemical_formula_structural   RbGeI3
_chemical_formula_sum   'Rb4 Ge4 I12'
_cell_volume   823.33966142
_cell_formula_units_Z   4
loop_
 _symmetry_equiv_pos_site_id
 _symmetry_equiv_pos_as_xyz
  1  'x, y, z'
loop_
 _atom_site_type_symbol
 _atom_site_label
 _atom_site_symmetry_multiplicity
 _atom_site_fract_x
 _atom_site_fract_y
 _atom_site_fract_z
 _atom_site_occupancy
  Rb  Rb0  1  0.99471300  0.67011100  0.16999100  1
  Rb  Rb1  1  0.00528700  0.17011100  0.33000900  1
  Rb  Rb2  1  0.50528700  0.32988900  0.66999100  1
  Rb  Rb3  1  0.49471300  0.82988900  0.83000900  1
  Ge  Ge4  1  0.03401100  0.40881900  0.93734900  1
  Ge  Ge5  1  0.46598900  0.59118100  0.43734900  1
  Ge  Ge6  1  0.53401100  0.09118100  0.06265100  1
  Ge  Ge7  1  0.96598900  0.90881900  0.56265100  1
  I  I8  1  0.01176700  0.77165200  0.38916300  1
  I  I9  1  0.98286200  0.92014100  0.00011700  1
  I  I10  1  0.01713800  0.42014100  0.49988300  1
  I  I11  1  0.51176700  0.72834800  0.61083700  1
  I  I12  1  0.51713800  0.07985900  0.50011700  1
  I  I13  1  0.99200700  0.04016700  0.70852600  1
  I  I14  1  0.48823300  0.22834800  0.88916300  1
  I  I15  1  0.00799300  0.54016700  0.79147400  1
  I  I16  1  0.98823300  0.27165200  0.11083700  1
  I  I17  1  0.48286200  0.57985900  0.99988300  1
  I  I18  1  0.50799300  0.95983300  0.20852600  1
  I  I19  1  0.49200700  0.45983300  0.29147400  1
