# generated using pymatgen
data_CdSO4
_symmetry_space_group_name_H-M   'P 1'
_cell_length_a   4.84806700
_cell_length_b   4.88067700
_cell_length_c   6.60086500
_cell_angle_alpha   90.00000000
_cell_angle_beta   90.00000000
_cell_angle_gamma   90.00000000
_symmetry_Int_Tables_number   1
_chemical_formula_structural   CdSO4
_chemical_formula_sum   'Cd2 S2 O8'
_cell_volume   156.18867157
_cell_formula_units_Z   2
loop_
 _symmetry_equiv_pos_site_id
 _symmetry_equiv_pos_as_xyz
  1  'x, y, z'
loop_
 _atom_site_type_symbol
 _atom_site_label
 _atom_site_symmetry_multiplicity
 _atom_site_fract_x
 _atom_site_fract_y
 _atom_site_fract_z
 _atom_site_occupancy
  Cd  Cd0  1  0.87062500  0.76586600  0.50000000  1
  Cd  Cd1  1  0.12937500  0.26586600  0.00000000  1
  S  S2  1  0.32836800  0.22935300  0.50000000  1
  S  S3  1  0.67163200  0.72935300  0.00000000  1
  O  O4  1  0.81227500  0.60138200  0.81984300  1
  O  O5  1  0.18772500  0.10138200  0.68015700  1
  O  O6  1  0.18772500  0.10138200  0.31984300  1
  O  O7  1  0.81227500  0.60138200  0.18015700  1
  O  O8  1  0.37326400  0.66602900  0.00000000  1
  O  O9  1  0.62673600  0.16602900  0.50000000  1
  O  O10  1  0.70496900  0.03158900  0.00000000  1
  O  O11  1  0.29503100  0.53158900  0.50000000  1
