# generated using pymatgen
data_TlBi(PSe3)2
_symmetry_space_group_name_H-M   'P 1'
_cell_length_a   7.74937200
_cell_length_b   12.62207500
_cell_length_c   23.54602505
_cell_angle_alpha   82.39772006
_cell_angle_beta   90.00000000
_cell_angle_gamma   90.00000000
_symmetry_Int_Tables_number   1
_chemical_formula_structural   TlBi(PSe3)2
_chemical_formula_sum   'Tl8 Bi8 P16 Se48'
_cell_volume   2282.86727932
_cell_formula_units_Z   8
loop_
 _symmetry_equiv_pos_site_id
 _symmetry_equiv_pos_as_xyz
  1  'x, y, z'
loop_
 _atom_site_type_symbol
 _atom_site_label
 _atom_site_symmetry_multiplicity
 _atom_site_fract_x
 _atom_site_fract_y
 _atom_site_fract_z
 _atom_site_occupancy
  Tl  Tl0  1  0.58267500  0.33825500  0.57732500  1
  Tl  Tl1  1  0.41732500  0.66174500  0.42267500  1
  Tl  Tl2  1  0.91732500  0.33825500  0.07732500  1
  Tl  Tl3  1  0.08267500  0.66174500  0.92267500  1
  Tl  Tl4  1  0.09502900  0.41861700  0.67477800  1
  Tl  Tl5  1  0.59502900  0.58138300  0.82522200  1
  Tl  Tl6  1  0.90497100  0.58138300  0.32522200  1
  Tl  Tl7  1  0.40497100  0.41861700  0.17477800  1
  Bi  Bi8  1  0.15496700  0.20169800  0.41991400  1
  Bi  Bi9  1  0.84641200  0.06047400  0.82738900  1
  Bi  Bi10  1  0.65358800  0.06047400  0.32738900  1
  Bi  Bi11  1  0.65496700  0.79830200  0.08008600  1
  Bi  Bi12  1  0.34503300  0.20169800  0.91991400  1
  Bi  Bi13  1  0.34641200  0.93952600  0.67261100  1
  Bi  Bi14  1  0.15358800  0.93952600  0.17261100  1
  Bi  Bi15  1  0.84503300  0.79830200  0.58008600  1
  P  P16  1  0.09542700  0.39964200  0.84773200  1
  P  P17  1  0.90457300  0.60035800  0.15226800  1
  P  P18  1  0.12311100  0.66609400  0.09298700  1
  P  P19  1  0.87489900  0.07921800  0.65631000  1
  P  P20  1  0.90425000  0.85920400  0.40331400  1
  P  P21  1  0.40425000  0.14079600  0.09668600  1
  P  P22  1  0.59542700  0.60035800  0.65226800  1
  P  P23  1  0.87688900  0.33390600  0.90701300  1
  P  P24  1  0.62510100  0.07921800  0.15631000  1
  P  P25  1  0.37489900  0.92078200  0.84369000  1
  P  P26  1  0.12510100  0.92078200  0.34369000  1
  P  P27  1  0.62311100  0.33390600  0.40701300  1
  P  P28  1  0.59575000  0.85920400  0.90331400  1
  P  P29  1  0.40457300  0.39964200  0.34773200  1
  P  P30  1  0.09575000  0.14079600  0.59668600  1
  P  P31  1  0.37688900  0.66609400  0.59298700  1
  Se  Se32  1  0.49755000  0.72954000  0.96569300  1
  Se  Se33  1  0.00841900  0.53657000  0.79073000  1
  Se  Se34  1  0.31379100  0.72796800  0.15223100  1
  Se  Se35  1  0.50120800  0.94913400  0.21847800  1
  Se  Se36  1  0.99879200  0.94913400  0.71847800  1
  Se  Se37  1  0.49643700  0.79956000  0.53301200  1
  Se  Se38  1  0.99755000  0.27046000  0.53430700  1
  Se  Se39  1  0.68828300  0.00438400  0.93921800  1
  Se  Se40  1  0.71702700  0.20899600  0.20181700  1
  Se  Se41  1  0.31856000  0.98291900  0.40094700  1
  Se  Se42  1  0.50841900  0.46343000  0.70927000  1
  Se  Se43  1  0.28297300  0.79100400  0.79818300  1
  Se  Se44  1  0.79765700  0.81970600  0.84329300  1
  Se  Se45  1  0.81504400  0.74471000  0.19067100  1
  Se  Se46  1  0.72865900  0.46360200  0.44858100  1
  Se  Se47  1  0.81856000  0.01708100  0.09905300  1
  Se  Se48  1  0.78297300  0.20899600  0.70181700  1
  Se  Se49  1  0.81171700  0.00438400  0.43921800  1
  Se  Se50  1  0.21702700  0.79100400  0.29818300  1
  Se  Se51  1  0.18828300  0.99561600  0.56078200  1
  Se  Se52  1  0.68144000  0.01708100  0.59905300  1
  Se  Se53  1  0.30265700  0.43171500  0.90886000  1
  Se  Se54  1  0.19734300  0.43171500  0.40886000  1
  Se  Se55  1  0.69734300  0.56828500  0.09114000  1
  Se  Se56  1  0.31504400  0.25529000  0.30932900  1
  Se  Se57  1  0.20234300  0.18029400  0.15670700  1
  Se  Se58  1  0.18495600  0.25529000  0.80932900  1
  Se  Se59  1  0.50245000  0.27046000  0.03430700  1
  Se  Se60  1  0.29765700  0.18029400  0.65670700  1
  Se  Se61  1  0.68495600  0.74471000  0.69067100  1
  Se  Se62  1  0.80265700  0.56828500  0.59114000  1
  Se  Se63  1  0.77134100  0.46360200  0.94858100  1
  Se  Se64  1  0.31171700  0.99561600  0.06078200  1
  Se  Se65  1  0.49879200  0.05086600  0.78152200  1
  Se  Se66  1  0.00120800  0.05086600  0.28152200  1
  Se  Se67  1  0.49158100  0.53657000  0.29073000  1
  Se  Se68  1  0.00356300  0.79956000  0.03301200  1
  Se  Se69  1  0.70234300  0.81970600  0.34329300  1
  Se  Se70  1  0.99158100  0.46343000  0.20927000  1
  Se  Se71  1  0.50356300  0.20044000  0.46698800  1
  Se  Se72  1  0.99643700  0.20044000  0.96698800  1
  Se  Se73  1  0.18620900  0.72796800  0.65223100  1
  Se  Se74  1  0.81379100  0.27203200  0.34776900  1
  Se  Se75  1  0.27134100  0.53639800  0.55141900  1
  Se  Se76  1  0.00245000  0.72954000  0.46569300  1
  Se  Se77  1  0.68620900  0.27203200  0.84776900  1
  Se  Se78  1  0.18144000  0.98291900  0.90094700  1
  Se  Se79  1  0.22865900  0.53639800  0.05141900  1
