# generated using pymatgen
data_Th(Al5Fe)2
_symmetry_space_group_name_H-M   'P 1'
_cell_length_a   6.80429008
_cell_length_b   6.80429008
_cell_length_c   9.01958700
_cell_angle_alpha   90.00000000
_cell_angle_beta   90.00000000
_cell_angle_gamma   97.61193303
_symmetry_Int_Tables_number   1
_chemical_formula_structural   Th(Al5Fe)2
_chemical_formula_sum   'Th2 Al20 Fe4'
_cell_volume   413.91228498
_cell_formula_units_Z   2
loop_
 _symmetry_equiv_pos_site_id
 _symmetry_equiv_pos_as_xyz
  1  'x, y, z'
loop_
 _atom_site_type_symbol
 _atom_site_label
 _atom_site_symmetry_multiplicity
 _atom_site_fract_x
 _atom_site_fract_y
 _atom_site_fract_z
 _atom_site_occupancy
  Th  Th0  1  0.87501300  0.12498700  0.75000000  1
  Th  Th1  1  0.12498700  0.87501300  0.25000000  1
  Al  Al2  1  0.51850400  0.77748500  0.75000000  1
  Al  Al3  1  0.48149600  0.22251500  0.25000000  1
  Al  Al4  1  0.58954300  0.86526300  0.25000000  1
  Al  Al5  1  0.77100800  0.77100800  0.00000000  1
  Al  Al6  1  0.16071800  0.83928200  0.59884800  1
  Al  Al7  1  0.22899200  0.22899200  0.00000000  1
  Al  Al8  1  0.13473700  0.41045700  0.25000000  1
  Al  Al9  1  0.62349800  0.37650200  0.95024700  1
  Al  Al10  1  0.83928200  0.16071800  0.09884800  1
  Al  Al11  1  0.37650200  0.62349800  0.45024700  1
  Al  Al12  1  0.16071800  0.83928200  0.90115200  1
  Al  Al13  1  0.22251500  0.48149600  0.75000000  1
  Al  Al14  1  0.37650200  0.62349800  0.04975300  1
  Al  Al15  1  0.83928200  0.16071800  0.40115200  1
  Al  Al16  1  0.62349800  0.37650200  0.54975300  1
  Al  Al17  1  0.41045700  0.13473700  0.75000000  1
  Al  Al18  1  0.77748500  0.51850400  0.25000000  1
  Al  Al19  1  0.77100800  0.77100800  0.50000000  1
  Al  Al20  1  0.22899200  0.22899200  0.50000000  1
  Al  Al21  1  0.86526300  0.58954300  0.75000000  1
  Fe  Fe22  1  0.00000000  0.50000000  0.50000000  1
  Fe  Fe23  1  0.00000000  0.50000000  0.00000000  1
  Fe  Fe24  1  0.50000000  0.00000000  0.00000000  1
  Fe  Fe25  1  0.50000000  0.00000000  0.50000000  1
