# generated using pymatgen
data_Pr2CBr
_symmetry_space_group_name_H-M   'P 1'
_cell_length_a   3.84954855
_cell_length_b   3.84954855
_cell_length_c   15.05585700
_cell_angle_alpha   90.00000000
_cell_angle_beta   90.00000000
_cell_angle_gamma   120.00000951
_symmetry_Int_Tables_number   1
_chemical_formula_structural   Pr2CBr
_chemical_formula_sum   'Pr4 C2 Br2'
_cell_volume   193.22160023
_cell_formula_units_Z   2
loop_
 _symmetry_equiv_pos_site_id
 _symmetry_equiv_pos_as_xyz
  1  'x, y, z'
loop_
 _atom_site_type_symbol
 _atom_site_label
 _atom_site_symmetry_multiplicity
 _atom_site_fract_x
 _atom_site_fract_y
 _atom_site_fract_z
 _atom_site_occupancy
  Pr  Pr0  1  0.33333300  0.66666700  0.09211000  1
  Pr  Pr1  1  0.66666700  0.33333300  0.59211000  1
  Pr  Pr2  1  0.66666700  0.33333300  0.90789000  1
  Pr  Pr3  1  0.33333300  0.66666700  0.40789000  1
  C  C4  1  0.00000000  0.00000000  0.00000000  1
  C  C5  1  0.00000000  0.00000000  0.50000000  1
  Br  Br6  1  0.66666700  0.33333300  0.25000000  1
  Br  Br7  1  0.33333300  0.66666700  0.75000000  1
