# generated using pymatgen
data_CaAl9Co2
_symmetry_space_group_name_H-M   'P 1'
_cell_length_a   7.89098657
_cell_length_b   7.89098657
_cell_length_c   3.85994800
_cell_angle_alpha   90.00000000
_cell_angle_beta   90.00000000
_cell_angle_gamma   120.00000481
_symmetry_Int_Tables_number   1
_chemical_formula_structural   CaAl9Co2
_chemical_formula_sum   'Ca1 Al9 Co2'
_cell_volume   208.14916527
_cell_formula_units_Z   1
loop_
 _symmetry_equiv_pos_site_id
 _symmetry_equiv_pos_as_xyz
  1  'x, y, z'
loop_
 _atom_site_type_symbol
 _atom_site_label
 _atom_site_symmetry_multiplicity
 _atom_site_fract_x
 _atom_site_fract_y
 _atom_site_fract_z
 _atom_site_occupancy
  Ca  Ca0  1  0.00000000  0.00000000  0.00000000  1
  Al  Al1  1  0.50000000  0.00000000  0.00000000  1
  Al  Al2  1  0.50000000  0.50000000  0.00000000  1
  Al  Al3  1  0.00000000  0.50000000  0.00000000  1
  Al  Al4  1  0.21251400  0.42502700  0.50000000  1
  Al  Al5  1  0.78748600  0.21251400  0.50000000  1
  Al  Al6  1  0.42502700  0.21251400  0.50000000  1
  Al  Al7  1  0.57497300  0.78748600  0.50000000  1
  Al  Al8  1  0.21251400  0.78748600  0.50000000  1
  Al  Al9  1  0.78748600  0.57497300  0.50000000  1
  Co  Co10  1  0.33333300  0.66666700  0.00000000  1
  Co  Co11  1  0.66666700  0.33333300  0.00000000  1
