# generated using pymatgen
data_Sm3CuSe6
_symmetry_space_group_name_H-M   'P 1'
_cell_length_a   17.03508100
_cell_length_b   7.23385700
_cell_length_c   7.95462499
_cell_angle_alpha   89.41333398
_cell_angle_beta   90.00000000
_cell_angle_gamma   90.00000000
_symmetry_Int_Tables_number   1
_chemical_formula_structural   Sm3CuSe6
_chemical_formula_sum   'Sm12 Cu4 Se24'
_cell_volume   980.19180156
_cell_formula_units_Z   4
loop_
 _symmetry_equiv_pos_site_id
 _symmetry_equiv_pos_as_xyz
  1  'x, y, z'
loop_
 _atom_site_type_symbol
 _atom_site_label
 _atom_site_symmetry_multiplicity
 _atom_site_fract_x
 _atom_site_fract_y
 _atom_site_fract_z
 _atom_site_occupancy
  Sm  Sm0  1  0.75000000  0.76135000  0.44288100  1
  Sm  Sm1  1  0.58739300  0.25556800  0.55901100  1
  Sm  Sm2  1  0.40955600  0.27191400  0.94234800  1
  Sm  Sm3  1  0.09044400  0.27191400  0.94234800  1
  Sm  Sm4  1  0.90955600  0.72808600  0.05765200  1
  Sm  Sm5  1  0.75000000  0.23646600  0.94525800  1
  Sm  Sm6  1  0.41260700  0.74443200  0.44098900  1
  Sm  Sm7  1  0.08739300  0.74443200  0.44098900  1
  Sm  Sm8  1  0.59044400  0.72808600  0.05765200  1
  Sm  Sm9  1  0.25000000  0.23865000  0.55711900  1
  Sm  Sm10  1  0.25000000  0.76353400  0.05474200  1
  Sm  Sm11  1  0.91260700  0.25556800  0.55901100  1
  Cu  Cu12  1  0.47127700  0.89658300  0.79555100  1
  Cu  Cu13  1  0.97127700  0.10341700  0.20444900  1
  Cu  Cu14  1  0.52872300  0.10341700  0.20444900  1
  Cu  Cu15  1  0.02872300  0.89658300  0.79555100  1
  Se  Se16  1  0.58124200  0.10879600  0.91003500  1
  Se  Se17  1  0.08124200  0.89120400  0.08996500  1
  Se  Se18  1  0.25000000  0.88500500  0.39713300  1
  Se  Se19  1  0.17399400  0.43123500  0.25022500  1
  Se  Se20  1  0.41875800  0.89120400  0.08996500  1
  Se  Se21  1  0.82523000  0.42138200  0.25530200  1
  Se  Se22  1  0.99982800  0.57320800  0.74719900  1
  Se  Se23  1  0.67399400  0.56876500  0.74977500  1
  Se  Se24  1  0.82600600  0.56876500  0.74977500  1
  Se  Se25  1  0.75000000  0.87400400  0.09639000  1
  Se  Se26  1  0.41861600  0.11614900  0.59748000  1
  Se  Se27  1  0.49982800  0.42679200  0.25280100  1
  Se  Se28  1  0.91861600  0.88385100  0.40252000  1
  Se  Se29  1  0.17477000  0.57861800  0.74469800  1
  Se  Se30  1  0.75000000  0.11499500  0.60286700  1
  Se  Se31  1  0.50017200  0.57320800  0.74719900  1
  Se  Se32  1  0.67477000  0.42138200  0.25530200  1
  Se  Se33  1  0.58138400  0.88385100  0.40252000  1
  Se  Se34  1  0.32600600  0.43123500  0.25022500  1
  Se  Se35  1  0.32523000  0.57861800  0.74469800  1
  Se  Se36  1  0.00017200  0.42679200  0.25280100  1
  Se  Se37  1  0.08138400  0.11614900  0.59748000  1
  Se  Se38  1  0.25000000  0.12599600  0.90361000  1
  Se  Se39  1  0.91875800  0.10879600  0.91003500  1
