# generated using pymatgen
data_Ho5NiPb3
_symmetry_space_group_name_H-M   'P 1'
_cell_length_a   9.13947429
_cell_length_b   9.13947429
_cell_length_c   6.68361600
_cell_angle_alpha   90.00000000
_cell_angle_beta   90.00000000
_cell_angle_gamma   120.00000212
_symmetry_Int_Tables_number   1
_chemical_formula_structural   Ho5NiPb3
_chemical_formula_sum   'Ho10 Ni2 Pb6'
_cell_volume   483.48671326
_cell_formula_units_Z   2
loop_
 _symmetry_equiv_pos_site_id
 _symmetry_equiv_pos_as_xyz
  1  'x, y, z'
loop_
 _atom_site_type_symbol
 _atom_site_label
 _atom_site_symmetry_multiplicity
 _atom_site_fract_x
 _atom_site_fract_y
 _atom_site_fract_z
 _atom_site_occupancy
  Ho  Ho0  1  0.00000000  0.76299100  0.75000000  1
  Ho  Ho1  1  0.33333300  0.66666700  0.50000000  1
  Ho  Ho2  1  0.76299100  0.76299100  0.25000000  1
  Ho  Ho3  1  0.76299100  0.00000000  0.75000000  1
  Ho  Ho4  1  0.23700900  0.00000000  0.25000000  1
  Ho  Ho5  1  0.66666700  0.33333300  0.50000000  1
  Ho  Ho6  1  0.23700900  0.23700900  0.75000000  1
  Ho  Ho7  1  0.33333300  0.66666700  0.00000000  1
  Ho  Ho8  1  0.00000000  0.23700900  0.25000000  1
  Ho  Ho9  1  0.66666700  0.33333300  0.00000000  1
  Ni  Ni10  1  0.00000000  0.00000000  0.00000000  1
  Ni  Ni11  1  0.00000000  0.00000000  0.50000000  1
  Pb  Pb12  1  0.39993400  0.39993400  0.25000000  1
  Pb  Pb13  1  0.60006600  0.60006600  0.75000000  1
  Pb  Pb14  1  0.60006600  0.00000000  0.25000000  1
  Pb  Pb15  1  0.39993400  0.00000000  0.75000000  1
  Pb  Pb16  1  0.00000000  0.60006600  0.25000000  1
  Pb  Pb17  1  0.00000000  0.39993400  0.75000000  1
