# generated using pymatgen
data_Sr7GeN6
_symmetry_space_group_name_H-M   'P 1'
_cell_length_a   6.62644600
_cell_length_b   11.67779500
_cell_length_c   13.93855100
_cell_angle_alpha   90.00000000
_cell_angle_beta   90.00000000
_cell_angle_gamma   90.00000000
_symmetry_Int_Tables_number   1
_chemical_formula_structural   Sr7GeN6
_chemical_formula_sum   'Sr28 Ge4 N24'
_cell_volume   1078.59682793
_cell_formula_units_Z   4
loop_
 _symmetry_equiv_pos_site_id
 _symmetry_equiv_pos_as_xyz
  1  'x, y, z'
loop_
 _atom_site_type_symbol
 _atom_site_label
 _atom_site_symmetry_multiplicity
 _atom_site_fract_x
 _atom_site_fract_y
 _atom_site_fract_z
 _atom_site_occupancy
  Sr  Sr0  1  0.85487800  0.22414200  0.37435300  1
  Sr  Sr1  1  0.76390000  0.46211800  0.52022100  1
  Sr  Sr2  1  0.35487800  0.27585800  0.37435300  1
  Sr  Sr3  1  0.55906200  0.00000000  0.75000000  1
  Sr  Sr4  1  0.88924100  0.79427400  0.87697000  1
  Sr  Sr5  1  0.26390000  0.96211800  0.97977900  1
  Sr  Sr6  1  0.44093800  0.00000000  0.25000000  1
  Sr  Sr7  1  0.76390000  0.53788200  0.97977900  1
  Sr  Sr8  1  0.88924100  0.20572600  0.62303000  1
  Sr  Sr9  1  0.94093800  0.50000000  0.25000000  1
  Sr  Sr10  1  0.14512200  0.77585800  0.62564700  1
  Sr  Sr11  1  0.64512200  0.27585800  0.87435300  1
  Sr  Sr12  1  0.61075900  0.70572600  0.37697000  1
  Sr  Sr13  1  0.38924100  0.29427400  0.62303000  1
  Sr  Sr14  1  0.26390000  0.03788200  0.52022100  1
  Sr  Sr15  1  0.85487800  0.77585800  0.12564700  1
  Sr  Sr16  1  0.23610000  0.46211800  0.02022100  1
  Sr  Sr17  1  0.35487800  0.72414200  0.12564700  1
  Sr  Sr18  1  0.23610000  0.53788200  0.47977900  1
  Sr  Sr19  1  0.05906200  0.50000000  0.75000000  1
  Sr  Sr20  1  0.61075900  0.29427400  0.12303000  1
  Sr  Sr21  1  0.64512200  0.72414200  0.62564700  1
  Sr  Sr22  1  0.14512200  0.22414200  0.87435300  1
  Sr  Sr23  1  0.11075900  0.20572600  0.12303000  1
  Sr  Sr24  1  0.73610000  0.03788200  0.02022100  1
  Sr  Sr25  1  0.11075900  0.79427400  0.37697000  1
  Sr  Sr26  1  0.38924100  0.70572600  0.87697000  1
  Sr  Sr27  1  0.73610000  0.96211800  0.47977900  1
  Ge  Ge28  1  0.93023200  0.00000000  0.25000000  1
  Ge  Ge29  1  0.56976800  0.50000000  0.75000000  1
  Ge  Ge30  1  0.06976800  0.00000000  0.75000000  1
  Ge  Ge31  1  0.43023200  0.50000000  0.25000000  1
  N  N32  1  0.59817100  0.54550500  0.14391400  1
  N  N33  1  0.75941100  0.12628600  0.20844700  1
  N  N34  1  0.09817100  0.04550500  0.35608600  1
  N  N35  1  0.25941100  0.37371400  0.20844700  1
  N  N36  1  0.90649500  0.33398600  0.99733100  1
  N  N37  1  0.90649500  0.66601400  0.50266900  1
  N  N38  1  0.59817100  0.45449500  0.35608600  1
  N  N39  1  0.59350500  0.83398600  0.00266900  1
  N  N40  1  0.09350500  0.33398600  0.49733100  1
  N  N41  1  0.74058900  0.62628600  0.79155300  1
  N  N42  1  0.75941100  0.87371400  0.29155300  1
  N  N43  1  0.09350500  0.66601400  0.00266900  1
  N  N44  1  0.90182900  0.04550500  0.85608600  1
  N  N45  1  0.90182900  0.95449500  0.64391400  1
  N  N46  1  0.24058900  0.12628600  0.70844700  1
  N  N47  1  0.74058900  0.37371400  0.70844700  1
  N  N48  1  0.40649500  0.16601400  0.99733100  1
  N  N49  1  0.40182900  0.54550500  0.64391400  1
  N  N50  1  0.25941100  0.62628600  0.29155300  1
  N  N51  1  0.40182900  0.45449500  0.85608600  1
  N  N52  1  0.59350500  0.16601400  0.49733100  1
  N  N53  1  0.40649500  0.83398600  0.50266900  1
  N  N54  1  0.09817100  0.95449500  0.14391400  1
  N  N55  1  0.24058900  0.87371400  0.79155300  1
