# generated using pymatgen
data_BaI2
_symmetry_space_group_name_H-M   'P 1'
_cell_length_a   9.27887434
_cell_length_b   9.27887434
_cell_length_c   5.25572300
_cell_angle_alpha   90.00000000
_cell_angle_beta   90.00000000
_cell_angle_gamma   120.00000245
_symmetry_Int_Tables_number   1
_chemical_formula_structural   BaI2
_chemical_formula_sum   'Ba3 I6'
_cell_volume   391.88052016
_cell_formula_units_Z   3
loop_
 _symmetry_equiv_pos_site_id
 _symmetry_equiv_pos_as_xyz
  1  'x, y, z'
loop_
 _atom_site_type_symbol
 _atom_site_label
 _atom_site_symmetry_multiplicity
 _atom_site_fract_x
 _atom_site_fract_y
 _atom_site_fract_z
 _atom_site_occupancy
  Ba  Ba0  1  0.00000000  0.00000000  0.50000000  1
  Ba  Ba1  1  0.66666700  0.33333300  0.00000000  1
  Ba  Ba2  1  0.33333300  0.66666700  0.00000000  1
  I  I3  1  0.59194500  0.00000000  0.50000000  1
  I  I4  1  0.00000000  0.25656900  0.00000000  1
  I  I5  1  0.25656900  0.00000000  0.00000000  1
  I  I6  1  0.00000000  0.59194500  0.50000000  1
  I  I7  1  0.40805500  0.40805500  0.50000000  1
  I  I8  1  0.74343100  0.74343100  0.00000000  1
