# generated using pymatgen
data_Cd4P2I3
_symmetry_space_group_name_H-M   'P 1'
_cell_length_a   12.82355600
_cell_length_b   12.92772200
_cell_length_c   13.21954800
_cell_angle_alpha   90.00000000
_cell_angle_beta   90.00000000
_cell_angle_gamma   90.00000000
_symmetry_Int_Tables_number   1
_chemical_formula_structural   Cd4P2I3
_chemical_formula_sum   'Cd32 P16 I24'
_cell_volume   2191.52829972
_cell_formula_units_Z   8
loop_
 _symmetry_equiv_pos_site_id
 _symmetry_equiv_pos_as_xyz
  1  'x, y, z'
loop_
 _atom_site_type_symbol
 _atom_site_label
 _atom_site_symmetry_multiplicity
 _atom_site_fract_x
 _atom_site_fract_y
 _atom_site_fract_z
 _atom_site_occupancy
  Cd  Cd0  1  0.79747500  0.42374000  0.90891600  1
  Cd  Cd1  1  0.79747500  0.92374000  0.59108400  1
  Cd  Cd2  1  0.58706400  0.20842600  0.93919300  1
  Cd  Cd3  1  0.59461100  0.56881200  0.01733400  1
  Cd  Cd4  1  0.09461100  0.93118800  0.01733400  1
  Cd  Cd5  1  0.91293600  0.70842600  0.06080700  1
  Cd  Cd6  1  0.95752200  0.42906100  0.21398600  1
  Cd  Cd7  1  0.95752200  0.92906100  0.28601400  1
  Cd  Cd8  1  0.45752200  0.07093900  0.21398600  1
  Cd  Cd9  1  0.04247800  0.57093900  0.78601400  1
  Cd  Cd10  1  0.08706400  0.29157400  0.93919300  1
  Cd  Cd11  1  0.04247800  0.07093900  0.71398600  1
  Cd  Cd12  1  0.70252500  0.92374000  0.09108400  1
  Cd  Cd13  1  0.54247800  0.42906100  0.71398600  1
  Cd  Cd14  1  0.59461100  0.06881200  0.48266600  1
  Cd  Cd15  1  0.45752200  0.57093900  0.28601400  1
  Cd  Cd16  1  0.40538900  0.43118800  0.98266600  1
  Cd  Cd17  1  0.91293600  0.20842600  0.43919300  1
  Cd  Cd18  1  0.58706400  0.70842600  0.56080700  1
  Cd  Cd19  1  0.90538900  0.56881200  0.51733400  1
  Cd  Cd20  1  0.20252500  0.57626000  0.09108400  1
  Cd  Cd21  1  0.09461100  0.43118800  0.48266600  1
  Cd  Cd22  1  0.41293600  0.79157400  0.06080700  1
  Cd  Cd23  1  0.70252500  0.42374000  0.40891600  1
  Cd  Cd24  1  0.40538900  0.93118800  0.51733400  1
  Cd  Cd25  1  0.41293600  0.29157400  0.43919300  1
  Cd  Cd26  1  0.54247800  0.92906100  0.78601400  1
  Cd  Cd27  1  0.90538900  0.06881200  0.98266600  1
  Cd  Cd28  1  0.29747500  0.07626000  0.90891600  1
  Cd  Cd29  1  0.20252500  0.07626000  0.40891600  1
  Cd  Cd30  1  0.08706400  0.79157400  0.56080700  1
  Cd  Cd31  1  0.29747500  0.57626000  0.59108400  1
  P  P32  1  0.55221600  0.54766500  0.45344800  1
  P  P33  1  0.09585700  0.09787500  0.89681500  1
  P  P34  1  0.55221600  0.04766500  0.04655200  1
  P  P35  1  0.90414300  0.40212500  0.39681500  1
  P  P36  1  0.44778400  0.45233500  0.54655200  1
  P  P37  1  0.59585700  0.40212500  0.89681500  1
  P  P38  1  0.09585700  0.59787500  0.60318500  1
  P  P39  1  0.59585700  0.90212500  0.60318500  1
  P  P40  1  0.94778400  0.04766500  0.54655200  1
  P  P41  1  0.40414300  0.59787500  0.10318500  1
  P  P42  1  0.44778400  0.95233500  0.95344800  1
  P  P43  1  0.40414300  0.09787500  0.39681500  1
  P  P44  1  0.94778400  0.54766500  0.95344800  1
  P  P45  1  0.05221600  0.95233500  0.45344800  1
  P  P46  1  0.05221600  0.45233500  0.04655200  1
  P  P47  1  0.90414300  0.90212500  0.10318500  1
  I  I48  1  0.68239300  0.25287600  0.57344700  1
  I  I49  1  0.24797700  0.43042200  0.32117100  1
  I  I50  1  0.18239300  0.24712400  0.57344700  1
  I  I51  1  0.25202300  0.93042200  0.67882900  1
  I  I52  1  0.81760700  0.75287600  0.42655300  1
  I  I53  1  0.06174200  0.17508500  0.25685800  1
  I  I54  1  0.31760700  0.24712400  0.07344700  1
  I  I55  1  0.74797700  0.06957800  0.32117100  1
  I  I56  1  0.06174200  0.67508500  0.24314200  1
  I  I57  1  0.56174200  0.32491500  0.25685800  1
  I  I58  1  0.18239300  0.74712400  0.92655300  1
  I  I59  1  0.93825800  0.82491500  0.74314200  1
  I  I60  1  0.31760700  0.74712400  0.42655300  1
  I  I61  1  0.93825800  0.32491500  0.75685800  1
  I  I62  1  0.25202300  0.43042200  0.82117100  1
  I  I63  1  0.75202300  0.06957800  0.82117100  1
  I  I64  1  0.43825800  0.17508500  0.75685800  1
  I  I65  1  0.81760700  0.25287600  0.07344700  1
  I  I66  1  0.75202300  0.56957800  0.67882900  1
  I  I67  1  0.43825800  0.67508500  0.74314200  1
  I  I68  1  0.24797700  0.93042200  0.17882900  1
  I  I69  1  0.68239300  0.75287600  0.92655300  1
  I  I70  1  0.56174200  0.82491500  0.24314200  1
  I  I71  1  0.74797700  0.56957800  0.17882900  1
