# generated using pymatgen
data_Cs3W2Cl9
_symmetry_space_group_name_H-M   'P 1'
_cell_length_a   7.55488943
_cell_length_b   7.55488943
_cell_length_c   18.21011200
_cell_angle_alpha   90.00000000
_cell_angle_beta   90.00000000
_cell_angle_gamma   119.99999497
_symmetry_Int_Tables_number   1
_chemical_formula_structural   Cs3W2Cl9
_chemical_formula_sum   'Cs6 W4 Cl18'
_cell_volume   900.11810105
_cell_formula_units_Z   2
loop_
 _symmetry_equiv_pos_site_id
 _symmetry_equiv_pos_as_xyz
  1  'x, y, z'
loop_
 _atom_site_type_symbol
 _atom_site_label
 _atom_site_symmetry_multiplicity
 _atom_site_fract_x
 _atom_site_fract_y
 _atom_site_fract_z
 _atom_site_occupancy
  Cs  Cs0  1  0.33333300  0.66666700  0.07229000  1
  Cs  Cs1  1  0.00000000  0.00000000  0.25000000  1
  Cs  Cs2  1  0.33333300  0.66666700  0.42771000  1
  Cs  Cs3  1  0.00000000  0.00000000  0.75000000  1
  Cs  Cs4  1  0.66666700  0.33333300  0.57229000  1
  Cs  Cs5  1  0.66666700  0.33333300  0.92771000  1
  W  W6  1  0.33333300  0.66666700  0.67366200  1
  W  W7  1  0.33333300  0.66666700  0.82633800  1
  W  W8  1  0.66666700  0.33333300  0.17366200  1
  W  W9  1  0.66666700  0.33333300  0.32633800  1
  Cl  Cl10  1  0.49195900  0.50804100  0.75000000  1
  Cl  Cl11  1  0.98391800  0.49195900  0.25000000  1
  Cl  Cl12  1  0.50804100  0.49195900  0.25000000  1
  Cl  Cl13  1  0.63620500  0.81810300  0.59785300  1
  Cl  Cl14  1  0.81810300  0.63620500  0.40214700  1
  Cl  Cl15  1  0.50804100  0.01608200  0.25000000  1
  Cl  Cl16  1  0.18189700  0.81810300  0.59785300  1
  Cl  Cl17  1  0.18189700  0.81810300  0.90214700  1
  Cl  Cl18  1  0.81810300  0.18189700  0.09785300  1
  Cl  Cl19  1  0.18189700  0.36379500  0.90214700  1
  Cl  Cl20  1  0.36379500  0.18189700  0.09785300  1
  Cl  Cl21  1  0.81810300  0.63620500  0.09785300  1
  Cl  Cl22  1  0.18189700  0.36379500  0.59785300  1
  Cl  Cl23  1  0.49195900  0.98391800  0.75000000  1
  Cl  Cl24  1  0.01608200  0.50804100  0.75000000  1
  Cl  Cl25  1  0.36379500  0.18189700  0.40214700  1
  Cl  Cl26  1  0.63620500  0.81810300  0.90214700  1
  Cl  Cl27  1  0.81810300  0.18189700  0.40214700  1
