# generated using pymatgen
data_SiC
_symmetry_space_group_name_H-M   'P 1'
_cell_length_a   3.09495865
_cell_length_b   3.09495865
_cell_length_c   35.42029000
_cell_angle_alpha   90.00000000
_cell_angle_beta   90.00000000
_cell_angle_gamma   120.00001385
_symmetry_Int_Tables_number   1
_chemical_formula_structural   SiC
_chemical_formula_sum   'Si14 C14'
_cell_volume   293.82746294
_cell_formula_units_Z   14
loop_
 _symmetry_equiv_pos_site_id
 _symmetry_equiv_pos_as_xyz
  1  'x, y, z'
loop_
 _atom_site_type_symbol
 _atom_site_label
 _atom_site_symmetry_multiplicity
 _atom_site_fract_x
 _atom_site_fract_y
 _atom_site_fract_z
 _atom_site_occupancy
  Si  Si0  1  0.00000000  0.00000000  0.14283400  1
  Si  Si1  1  0.33333300  0.66666700  0.64279100  1
  Si  Si2  1  0.33333300  0.66666700  0.21422000  1
  Si  Si3  1  0.66666700  0.33333300  0.07145000  1
  Si  Si4  1  0.00000000  0.00000000  0.85712500  1
  Si  Si5  1  0.00000000  0.00000000  0.57145200  1
  Si  Si6  1  0.33333300  0.66666700  0.78573300  1
  Si  Si7  1  0.33333300  0.66666700  0.35716200  1
  Si  Si8  1  0.33333300  0.66666700  0.99998200  1
  Si  Si9  1  0.00000000  0.00000000  0.42850700  1
  Si  Si10  1  0.66666700  0.33333300  0.92851000  1
  Si  Si11  1  0.66666700  0.33333300  0.28569900  1
  Si  Si12  1  0.66666700  0.33333300  0.49998300  1
  Si  Si13  1  0.66666700  0.33333300  0.71426400  1
  C  C14  1  0.00000000  0.00000000  0.19644800  1
  C  C15  1  0.66666700  0.33333300  0.33940000  1
  C  C16  1  0.00000000  0.00000000  0.91073400  1
  C  C17  1  0.33333300  0.66666700  0.83929500  1
  C  C18  1  0.33333300  0.66666700  0.41071800  1
  C  C19  1  0.66666700  0.33333300  0.55368600  1
  C  C20  1  0.33333300  0.66666700  0.26779900  1
  C  C21  1  0.66666700  0.33333300  0.76798900  1
  C  C22  1  0.66666700  0.33333300  0.98206400  1
  C  C23  1  0.33333300  0.66666700  0.69637300  1
  C  C24  1  0.33333300  0.66666700  0.05368600  1
  C  C25  1  0.00000000  0.00000000  0.48206300  1
  C  C26  1  0.00000000  0.00000000  0.62501500  1
  C  C27  1  0.66666700  0.33333300  0.12501400  1
