# generated using pymatgen
data_HgI2
_symmetry_space_group_name_H-M   'P 1'
_cell_length_a   9.14944100
_cell_length_b   9.14944100
_cell_length_c   13.24801800
_cell_angle_alpha   90.00000000
_cell_angle_beta   90.00000000
_cell_angle_gamma   90.00000000
_symmetry_Int_Tables_number   1
_chemical_formula_structural   HgI2
_chemical_formula_sum   'Hg8 I16'
_cell_volume   1109.02166790
_cell_formula_units_Z   8
loop_
 _symmetry_equiv_pos_site_id
 _symmetry_equiv_pos_as_xyz
  1  'x, y, z'
loop_
 _atom_site_type_symbol
 _atom_site_label
 _atom_site_symmetry_multiplicity
 _atom_site_fract_x
 _atom_site_fract_y
 _atom_site_fract_z
 _atom_site_occupancy
  Hg  Hg0  1  0.25186300  0.50000000  0.87730400  1
  Hg  Hg1  1  0.50000000  0.74813700  0.12269600  1
  Hg  Hg2  1  0.75186300  0.00000000  0.62269600  1
  Hg  Hg3  1  0.50000000  0.25186300  0.12269600  1
  Hg  Hg4  1  0.74813700  0.50000000  0.87730400  1
  Hg  Hg5  1  0.00000000  0.75186300  0.37730400  1
  Hg  Hg6  1  0.00000000  0.24813700  0.37730400  1
  Hg  Hg7  1  0.24813700  0.00000000  0.62269600  1
  I  I8  1  0.00000000  0.00000000  0.75504800  1
  I  I9  1  0.50000000  0.00000000  0.25249700  1
  I  I10  1  0.24202300  0.75797700  0.00000000  1
  I  I11  1  0.74202300  0.25797700  0.50000000  1
  I  I12  1  0.00000000  0.00000000  0.24495200  1
  I  I13  1  0.25797700  0.25797700  0.50000000  1
  I  I14  1  0.25797700  0.74202300  0.50000000  1
  I  I15  1  0.50000000  0.00000000  0.75249700  1
  I  I16  1  0.50000000  0.50000000  0.25504800  1
  I  I17  1  0.74202300  0.74202300  0.50000000  1
  I  I18  1  0.50000000  0.50000000  0.74495200  1
  I  I19  1  0.00000000  0.50000000  0.24750300  1
  I  I20  1  0.24202300  0.24202300  0.00000000  1
  I  I21  1  0.75797700  0.75797700  0.00000000  1
  I  I22  1  0.75797700  0.24202300  0.00000000  1
  I  I23  1  0.00000000  0.50000000  0.74750300  1
