# generated using pymatgen
data_Na4Ge2Se5
_symmetry_space_group_name_H-M   'P 1'
_cell_length_a   12.20872200
_cell_length_b   13.30411900
_cell_length_c   14.34935035
_cell_angle_alpha   87.26122089
_cell_angle_beta   90.00000000
_cell_angle_gamma   90.00000000
_symmetry_Int_Tables_number   1
_chemical_formula_structural   Na4Ge2Se5
_chemical_formula_sum   'Na32 Ge16 Se40'
_cell_volume   2328.04952219
_cell_formula_units_Z   8
loop_
 _symmetry_equiv_pos_site_id
 _symmetry_equiv_pos_as_xyz
  1  'x, y, z'
loop_
 _atom_site_type_symbol
 _atom_site_label
 _atom_site_symmetry_multiplicity
 _atom_site_fract_x
 _atom_site_fract_y
 _atom_site_fract_z
 _atom_site_occupancy
  Na  Na0  1  0.88077200  0.09480800  0.55891600  1
  Na  Na1  1  0.59020000  0.51403000  0.23110900  1
  Na  Na2  1  0.40980000  0.48597000  0.76889100  1
  Na  Na3  1  0.08940600  0.80314500  0.14516600  1
  Na  Na4  1  0.13446700  0.61263400  0.53693100  1
  Na  Na5  1  0.09020000  0.48597000  0.26889100  1
  Na  Na6  1  0.87898800  0.91102500  0.94903600  1
  Na  Na7  1  0.83910000  0.98750200  0.23153700  1
  Na  Na8  1  0.12101200  0.08897500  0.05096400  1
  Na  Na9  1  0.58940600  0.19685500  0.35483400  1
  Na  Na10  1  0.62101200  0.91102500  0.44903600  1
  Na  Na11  1  0.66090000  0.98750200  0.73153700  1
  Na  Na12  1  0.85710900  0.70676700  0.34298800  1
  Na  Na13  1  0.11922800  0.90519200  0.44108400  1
  Na  Na14  1  0.36553300  0.61263400  0.03693100  1
  Na  Na15  1  0.90980000  0.51403000  0.73110900  1
  Na  Na16  1  0.63446700  0.38736600  0.96306900  1
  Na  Na17  1  0.64289100  0.70676700  0.84298800  1
  Na  Na18  1  0.91059400  0.19685500  0.85483400  1
  Na  Na19  1  0.16090000  0.01249800  0.76846300  1
  Na  Na20  1  0.41059400  0.80314500  0.64516600  1
  Na  Na21  1  0.86578700  0.57648600  0.07174400  1
  Na  Na22  1  0.33910000  0.01249800  0.26846300  1
  Na  Na23  1  0.86553300  0.38736600  0.46306900  1
  Na  Na24  1  0.13421300  0.42351400  0.92825600  1
  Na  Na25  1  0.37898800  0.08897500  0.55096400  1
  Na  Na26  1  0.36578700  0.42351400  0.42825600  1
  Na  Na27  1  0.61922800  0.09480800  0.05891600  1
  Na  Na28  1  0.14289100  0.29323300  0.65701200  1
  Na  Na29  1  0.63421300  0.57648600  0.57174400  1
  Na  Na30  1  0.35710900  0.29323300  0.15701200  1
  Na  Na31  1  0.38077200  0.90519200  0.94108400  1
  Ge  Ge32  1  0.83474600  0.77714500  0.57834500  1
  Ge  Ge33  1  0.70221400  0.32308100  0.71418700  1
  Ge  Ge34  1  0.66525400  0.77714500  0.07834500  1
  Ge  Ge35  1  0.20221400  0.67691900  0.78581300  1
  Ge  Ge36  1  0.94806300  0.82723400  0.71216300  1
  Ge  Ge37  1  0.16525400  0.22285500  0.42165500  1
  Ge  Ge38  1  0.55193700  0.82723400  0.21216300  1
  Ge  Ge39  1  0.29778600  0.67691900  0.28581300  1
  Ge  Ge40  1  0.59121500  0.27745500  0.58028900  1
  Ge  Ge41  1  0.44806300  0.17276600  0.78783700  1
  Ge  Ge42  1  0.79778600  0.32308100  0.21418700  1
  Ge  Ge43  1  0.90878500  0.27745500  0.08028900  1
  Ge  Ge44  1  0.09121500  0.72254500  0.91971100  1
  Ge  Ge45  1  0.33474600  0.22285500  0.92165500  1
  Ge  Ge46  1  0.05193700  0.17276600  0.28783700  1
  Ge  Ge47  1  0.40878500  0.72254500  0.41971100  1
  Se  Se48  1  0.38598500  0.60690400  0.54619500  1
  Se  Se49  1  0.63121500  0.89618800  0.95366900  1
  Se  Se50  1  0.13121500  0.10381200  0.54633100  1
  Se  Se51  1  0.35731600  0.80805400  0.16729600  1
  Se  Se52  1  0.88583700  0.29865700  0.66802400  1
  Se  Se53  1  0.86878500  0.89618800  0.45366900  1
  Se  Se54  1  0.09226100  0.28926600  0.15381000  1
  Se  Se55  1  0.61401500  0.39309600  0.45380500  1
  Se  Se56  1  0.41057800  0.00540600  0.75142200  1
  Se  Se57  1  0.59226100  0.71073400  0.34619000  1
  Se  Se58  1  0.12937700  0.89034100  0.95524500  1
  Se  Se59  1  0.38583700  0.70134300  0.83197600  1
  Se  Se60  1  0.88598500  0.39309600  0.95380500  1
  Se  Se61  1  0.58942200  0.99459400  0.24857800  1
  Se  Se62  1  0.84527300  0.78793700  0.14144300  1
  Se  Se63  1  0.11416300  0.70134300  0.33197600  1
  Se  Se64  1  0.16118400  0.51574300  0.73429700  1
  Se  Se65  1  0.90773900  0.71073400  0.84619000  1
  Se  Se66  1  0.88104500  0.61212100  0.53699900  1
  Se  Se67  1  0.33881600  0.51574300  0.23429700  1
  Se  Se68  1  0.34527300  0.21206300  0.35855700  1
  Se  Se69  1  0.85731600  0.19194600  0.33270400  1
  Se  Se70  1  0.66118400  0.48425700  0.76570300  1
  Se  Se71  1  0.08942200  0.00540600  0.25142200  1
  Se  Se72  1  0.37062300  0.89034100  0.45524500  1
  Se  Se73  1  0.15472700  0.21206300  0.85855700  1
  Se  Se74  1  0.38104500  0.38787900  0.96300100  1
  Se  Se75  1  0.64268400  0.19194600  0.83270400  1
  Se  Se76  1  0.61416300  0.29865700  0.16802400  1
  Se  Se77  1  0.87062300  0.10965900  0.04475500  1
  Se  Se78  1  0.14268400  0.80805400  0.66729600  1
  Se  Se79  1  0.61895500  0.61212100  0.03699900  1
  Se  Se80  1  0.91057800  0.99459400  0.74857800  1
  Se  Se81  1  0.11895500  0.38787900  0.46300100  1
  Se  Se82  1  0.11401500  0.60690400  0.04619500  1
  Se  Se83  1  0.40773900  0.28926600  0.65381000  1
  Se  Se84  1  0.83881600  0.48425700  0.26570300  1
  Se  Se85  1  0.36878500  0.10381200  0.04633100  1
  Se  Se86  1  0.65472700  0.78793700  0.64144300  1
  Se  Se87  1  0.62937700  0.10965900  0.54475500  1
