# generated using pymatgen
data_SiC
_symmetry_space_group_name_H-M   'P 1'
_cell_length_a   3.09404116
_cell_length_b   3.09404116
_cell_length_c   45.55453500
_cell_angle_alpha   90.00000000
_cell_angle_beta   90.00000000
_cell_angle_gamma   119.99998199
_symmetry_Int_Tables_number   1
_chemical_formula_structural   SiC
_chemical_formula_sum   'Si18 C18'
_cell_volume   377.67175071
_cell_formula_units_Z   18
loop_
 _symmetry_equiv_pos_site_id
 _symmetry_equiv_pos_as_xyz
  1  'x, y, z'
loop_
 _atom_site_type_symbol
 _atom_site_label
 _atom_site_symmetry_multiplicity
 _atom_site_fract_x
 _atom_site_fract_y
 _atom_site_fract_z
 _atom_site_occupancy
  Si  Si0  1  0.00000000  0.00000000  0.22220200  1
  Si  Si1  1  0.66666700  0.33333300  0.33331600  1
  Si  Si2  1  0.33333300  0.66666700  0.72222900  1
  Si  Si3  1  0.66666700  0.33333300  0.55554100  1
  Si  Si4  1  0.00000000  0.00000000  0.44442700  1
  Si  Si5  1  0.33333300  0.66666700  0.27775700  1
  Si  Si6  1  0.00000000  0.00000000  0.66664700  1
  Si  Si7  1  0.33333300  0.66666700  0.05553100  1
  Si  Si8  1  0.33333300  0.66666700  0.61108700  1
  Si  Si9  1  0.66666700  0.33333300  0.88890000  1
  Si  Si10  1  0.00000000  0.00000000  0.83331600  1
  Si  Si11  1  0.33333300  0.66666700  0.94438900  1
  Si  Si12  1  0.66666700  0.33333300  0.11109400  1
  Si  Si13  1  0.00000000  0.00000000  0.99998200  1
  Si  Si14  1  0.33333300  0.66666700  0.16664200  1
  Si  Si15  1  0.66666700  0.33333300  0.77772700  1
  Si  Si16  1  0.33333300  0.66666700  0.38886600  1
  Si  Si17  1  0.33333300  0.66666700  0.49997100  1
  C  C18  1  0.33333300  0.66666700  0.54160000  1
  C  C19  1  0.66666700  0.33333300  0.93056700  1
  C  C20  1  0.00000000  0.00000000  0.04176400  1
  C  C21  1  0.66666700  0.33333300  0.59731500  1
  C  C22  1  0.00000000  0.00000000  0.26398400  1
  C  C23  1  0.33333300  0.66666700  0.20828100  1
  C  C24  1  0.33333300  0.66666700  0.43050400  1
  C  C25  1  0.00000000  0.00000000  0.70843600  1
  C  C26  1  0.66666700  0.33333300  0.15287500  1
  C  C27  1  0.33333300  0.66666700  0.98605600  1
  C  C28  1  0.33333300  0.66666700  0.76389000  1
  C  C29  1  0.33333300  0.66666700  0.09716900  1
  C  C30  1  0.33333300  0.66666700  0.31939500  1
  C  C31  1  0.00000000  0.00000000  0.48620100  1
  C  C32  1  0.66666700  0.33333300  0.81940800  1
  C  C33  1  0.33333300  0.66666700  0.65273600  1
  C  C34  1  0.00000000  0.00000000  0.87509700  1
  C  C35  1  0.66666700  0.33333300  0.37509600  1
