# generated using pymatgen
data_KBi(PSe3)2
_symmetry_space_group_name_H-M   'P 1'
_cell_length_a   7.83896500
_cell_length_b   7.09199700
_cell_length_c   10.45420334
_cell_angle_alpha   88.29722529
_cell_angle_beta   90.00000000
_cell_angle_gamma   90.00000000
_symmetry_Int_Tables_number   1
_chemical_formula_structural   KBi(PSe3)2
_chemical_formula_sum   'K2 Bi2 P4 Se12'
_cell_volume   580.93346466
_cell_formula_units_Z   2
loop_
 _symmetry_equiv_pos_site_id
 _symmetry_equiv_pos_as_xyz
  1  'x, y, z'
loop_
 _atom_site_type_symbol
 _atom_site_label
 _atom_site_symmetry_multiplicity
 _atom_site_fract_x
 _atom_site_fract_y
 _atom_site_fract_z
 _atom_site_occupancy
  K  K0  1  0.04301200  0.30181200  0.49961200  1
  K  K1  1  0.54301200  0.69818800  0.50038800  1
  Bi  Bi2  1  0.28973900  0.20688600  0.98199000  1
  Bi  Bi3  1  0.78973900  0.79311400  0.01801000  1
  P  P4  1  0.74878600  0.30787300  0.82510000  1
  P  P5  1  0.24878600  0.69212700  0.17490000  1
  P  P6  1  0.02992500  0.79648200  0.29862900  1
  P  P7  1  0.52992500  0.20351800  0.70137100  1
  Se  Se8  1  0.62886400  0.35019800  0.01902400  1
  Se  Se9  1  0.11495200  0.82743200  0.49219100  1
  Se  Se10  1  0.94243100  0.07621600  0.82692100  1
  Se  Se11  1  0.82778800  0.58444800  0.26937000  1
  Se  Se12  1  0.34492700  0.42581700  0.25755400  1
  Se  Se13  1  0.32778800  0.41555200  0.73063000  1
  Se  Se14  1  0.44307600  0.94449600  0.81212600  1
  Se  Se15  1  0.94307600  0.05550400  0.18787400  1
  Se  Se16  1  0.61495200  0.17256800  0.50780900  1
  Se  Se17  1  0.12886400  0.64980200  0.98097600  1
  Se  Se18  1  0.44243100  0.92378400  0.17307900  1
  Se  Se19  1  0.84492700  0.57418300  0.74244600  1
