# generated using pymatgen
data_DyTlPd
_symmetry_space_group_name_H-M   'P 1'
_cell_length_a   7.88231696
_cell_length_b   7.88231696
_cell_length_c   3.78138800
_cell_angle_alpha   90.00000000
_cell_angle_beta   90.00000000
_cell_angle_gamma   120.00000802
_symmetry_Int_Tables_number   1
_chemical_formula_structural   DyTlPd
_chemical_formula_sum   'Dy3 Tl3 Pd3'
_cell_volume   203.46495974
_cell_formula_units_Z   3
loop_
 _symmetry_equiv_pos_site_id
 _symmetry_equiv_pos_as_xyz
  1  'x, y, z'
loop_
 _atom_site_type_symbol
 _atom_site_label
 _atom_site_symmetry_multiplicity
 _atom_site_fract_x
 _atom_site_fract_y
 _atom_site_fract_z
 _atom_site_occupancy
  Dy  Dy0  1  0.59921700  0.00000000  0.50000000  1
  Dy  Dy1  1  0.40078300  0.40078300  0.50000000  1
  Dy  Dy2  1  0.00000000  0.59921700  0.50000000  1
  Tl  Tl3  1  0.26845500  0.00000000  0.00000000  1
  Tl  Tl4  1  0.73154500  0.73154500  0.00000000  1
  Tl  Tl5  1  0.00000000  0.26845500  0.00000000  1
  Pd  Pd6  1  0.33333300  0.66666700  0.00000000  1
  Pd  Pd7  1  0.66666700  0.33333300  0.00000000  1
  Pd  Pd8  1  0.00000000  0.00000000  0.50000000  1
