# generated using pymatgen
data_Na6ZnSn2
_symmetry_space_group_name_H-M   'P 1'
_cell_length_a   5.76296271
_cell_length_b   5.76296271
_cell_length_c   9.41209385
_cell_angle_alpha   83.08064693
_cell_angle_beta   83.08064693
_cell_angle_gamma   57.00201053
_symmetry_Int_Tables_number   1
_chemical_formula_structural   Na6ZnSn2
_chemical_formula_sum   'Na6 Zn1 Sn2'
_cell_volume   259.69261218
_cell_formula_units_Z   1
loop_
 _symmetry_equiv_pos_site_id
 _symmetry_equiv_pos_as_xyz
  1  'x, y, z'
loop_
 _atom_site_type_symbol
 _atom_site_label
 _atom_site_symmetry_multiplicity
 _atom_site_fract_x
 _atom_site_fract_y
 _atom_site_fract_z
 _atom_site_occupancy
  Na  Na0  1  0.52972600  0.52972600  0.27536500  1
  Na  Na1  1  0.82646900  0.82646900  0.59088500  1
  Na  Na2  1  0.70708700  0.70708700  0.92983100  1
  Na  Na3  1  0.17353100  0.17353100  0.40911500  1
  Na  Na4  1  0.47027400  0.47027400  0.72463500  1
  Na  Na5  1  0.29291300  0.29291300  0.07016900  1
  Zn  Zn6  1  0.00000000  0.00000000  0.00000000  1
  Sn  Sn7  1  0.85438700  0.85438700  0.25063200  1
  Sn  Sn8  1  0.14561300  0.14561300  0.74936800  1
