# generated using pymatgen
data_Cs2MgCl4
_symmetry_space_group_name_H-M   'P 1'
_cell_length_a   7.66170400
_cell_length_b   9.95103600
_cell_length_c   13.53736900
_cell_angle_alpha   90.00000000
_cell_angle_beta   90.00000000
_cell_angle_gamma   90.00000000
_symmetry_Int_Tables_number   1
_chemical_formula_structural   Cs2MgCl4
_chemical_formula_sum   'Cs8 Mg4 Cl16'
_cell_volume   1032.11462967
_cell_formula_units_Z   4
loop_
 _symmetry_equiv_pos_site_id
 _symmetry_equiv_pos_as_xyz
  1  'x, y, z'
loop_
 _atom_site_type_symbol
 _atom_site_label
 _atom_site_symmetry_multiplicity
 _atom_site_fract_x
 _atom_site_fract_y
 _atom_site_fract_z
 _atom_site_occupancy
  Cs  Cs0  1  0.75000000  0.36161400  0.40718700  1
  Cs  Cs1  1  0.25000000  0.63838600  0.59281300  1
  Cs  Cs2  1  0.75000000  0.86161400  0.09281300  1
  Cs  Cs3  1  0.75000000  0.01793500  0.68084700  1
  Cs  Cs4  1  0.75000000  0.51793500  0.81915300  1
  Cs  Cs5  1  0.25000000  0.48206500  0.18084700  1
  Cs  Cs6  1  0.25000000  0.13838600  0.90718700  1
  Cs  Cs7  1  0.25000000  0.98206500  0.31915300  1
  Mg  Mg8  1  0.25000000  0.22897300  0.57711200  1
  Mg  Mg9  1  0.75000000  0.27102700  0.07711200  1
  Mg  Mg10  1  0.75000000  0.77102700  0.42288800  1
  Mg  Mg11  1  0.25000000  0.72897300  0.92288800  1
  Cl  Cl12  1  0.49736600  0.81925200  0.84640600  1
  Cl  Cl13  1  0.25000000  0.49467000  0.91164100  1
  Cl  Cl14  1  0.49736600  0.31925200  0.65359400  1
  Cl  Cl15  1  0.75000000  0.00533000  0.41164100  1
  Cl  Cl16  1  0.25000000  0.81315400  0.08511300  1
  Cl  Cl17  1  0.50263400  0.68074800  0.34640600  1
  Cl  Cl18  1  0.25000000  0.31315400  0.41488700  1
  Cl  Cl19  1  0.75000000  0.50533000  0.08835900  1
  Cl  Cl20  1  0.50263400  0.18074800  0.15359400  1
  Cl  Cl21  1  0.00263400  0.81925200  0.84640600  1
  Cl  Cl22  1  0.00263400  0.31925200  0.65359400  1
  Cl  Cl23  1  0.99736600  0.68074800  0.34640600  1
  Cl  Cl24  1  0.75000000  0.68684600  0.58511300  1
  Cl  Cl25  1  0.99736600  0.18074800  0.15359400  1
  Cl  Cl26  1  0.25000000  0.99467000  0.58835900  1
  Cl  Cl27  1  0.75000000  0.18684600  0.91488700  1
