# generated using pymatgen
data_RbNa11(WN3)4
_symmetry_space_group_name_H-M   'P 1'
_cell_length_a   11.76566800
_cell_length_b   12.26677200
_cell_length_c   12.59264700
_cell_angle_alpha   90.00000000
_cell_angle_beta   90.00000000
_cell_angle_gamma   90.00000000
_symmetry_Int_Tables_number   1
_chemical_formula_structural   RbNa11(WN3)4
_chemical_formula_sum   'Rb4 Na44 W16 N48'
_cell_volume   1817.45602676
_cell_formula_units_Z   4
loop_
 _symmetry_equiv_pos_site_id
 _symmetry_equiv_pos_as_xyz
  1  'x, y, z'
loop_
 _atom_site_type_symbol
 _atom_site_label
 _atom_site_symmetry_multiplicity
 _atom_site_fract_x
 _atom_site_fract_y
 _atom_site_fract_z
 _atom_site_occupancy
  Rb  Rb0  1  0.00000000  0.00000000  0.50000000  1
  Rb  Rb1  1  0.50000000  0.00000000  0.00000000  1
  Rb  Rb2  1  0.50000000  0.50000000  0.50000000  1
  Rb  Rb3  1  0.00000000  0.50000000  0.00000000  1
  Na  Na4  1  0.13113500  0.55487800  0.23590200  1
  Na  Na5  1  0.86886500  0.44512200  0.76409800  1
  Na  Na6  1  0.63113500  0.94512200  0.23590200  1
  Na  Na7  1  0.63113500  0.44512200  0.26409800  1
  Na  Na8  1  0.77919800  0.18916900  0.67204500  1
  Na  Na9  1  0.25710500  0.37572000  0.40597600  1
  Na  Na10  1  0.75710500  0.62428000  0.09402400  1
  Na  Na11  1  0.27919800  0.31083100  0.67204500  1
  Na  Na12  1  0.38283900  0.02077000  0.26875800  1
  Na  Na13  1  0.44998200  0.74078200  0.37802700  1
  Na  Na14  1  0.36886500  0.05487800  0.76409800  1
  Na  Na15  1  0.94998200  0.25921800  0.12197300  1
  Na  Na16  1  0.88283900  0.97923000  0.23124200  1
  Na  Na17  1  0.11716100  0.02077000  0.76875800  1
  Na  Na18  1  0.75710500  0.12428000  0.40597600  1
  Na  Na19  1  0.74289500  0.12428000  0.90597600  1
  Na  Na20  1  0.55001800  0.25921800  0.62197300  1
  Na  Na21  1  0.13113500  0.05487800  0.26409800  1
  Na  Na22  1  0.94998200  0.75921800  0.37802700  1
  Na  Na23  1  0.24289500  0.87572000  0.59402400  1
  Na  Na24  1  0.22080200  0.81083100  0.32795500  1
  Na  Na25  1  0.61716100  0.47923000  0.76875800  1
  Na  Na26  1  0.00000000  0.00000000  0.00000000  1
  Na  Na27  1  0.25710500  0.87572000  0.09402400  1
  Na  Na28  1  0.05001800  0.74078200  0.87802700  1
  Na  Na29  1  0.74289500  0.62428000  0.59402400  1
  Na  Na30  1  0.11716100  0.52077000  0.73124200  1
  Na  Na31  1  0.44998200  0.24078200  0.12197300  1
  Na  Na32  1  0.27919800  0.81083100  0.82795500  1
  Na  Na33  1  0.50000000  0.50000000  0.00000000  1
  Na  Na34  1  0.24289500  0.37572000  0.90597600  1
  Na  Na35  1  0.38283900  0.52077000  0.23124200  1
  Na  Na36  1  0.00000000  0.50000000  0.50000000  1
  Na  Na37  1  0.36886500  0.55487800  0.73590200  1
  Na  Na38  1  0.50000000  0.00000000  0.50000000  1
  Na  Na39  1  0.61716100  0.97923000  0.73124200  1
  Na  Na40  1  0.72080200  0.18916900  0.17204500  1
  Na  Na41  1  0.55001800  0.75921800  0.87802700  1
  Na  Na42  1  0.86886500  0.94512200  0.73590200  1
  Na  Na43  1  0.88283900  0.47923000  0.26875800  1
  Na  Na44  1  0.22080200  0.31083100  0.17204500  1
  Na  Na45  1  0.72080200  0.68916900  0.32795500  1
  Na  Na46  1  0.77919800  0.68916900  0.82795500  1
  Na  Na47  1  0.05001800  0.24078200  0.62197300  1
  W  W48  1  0.99004500  0.73803900  0.63610400  1
  W  W49  1  0.73441900  0.38322100  0.99182600  1
  W  W50  1  0.73441900  0.88322100  0.50817400  1
  W  W51  1  0.00995500  0.26196100  0.36389600  1
  W  W52  1  0.99004500  0.23803900  0.86389600  1
  W  W53  1  0.23441900  0.61677900  0.50817400  1
  W  W54  1  0.49004500  0.26196100  0.86389600  1
  W  W55  1  0.50995500  0.73803900  0.13610400  1
  W  W56  1  0.76558100  0.38322100  0.49182600  1
  W  W57  1  0.50995500  0.23803900  0.36389600  1
  W  W58  1  0.26558100  0.61677900  0.00817400  1
  W  W59  1  0.00995500  0.76196100  0.13610400  1
  W  W60  1  0.49004500  0.76196100  0.63610400  1
  W  W61  1  0.26558100  0.11677900  0.49182600  1
  W  W62  1  0.76558100  0.88322100  0.00817400  1
  W  W63  1  0.23441900  0.11677900  0.99182600  1
  N  N64  1  0.06748300  0.34265400  0.78844500  1
  N  N65  1  0.27133500  0.60461700  0.36754200  1
  N  N66  1  0.27128300  0.48034800  0.06962600  1
  N  N67  1  0.22866500  0.10461700  0.63245800  1
  N  N68  1  0.14467000  0.19931000  0.42599100  1
  N  N69  1  0.85533000  0.30069000  0.92599100  1
  N  N70  1  0.77133500  0.89538300  0.36754200  1
  N  N71  1  0.56748300  0.15734600  0.78844500  1
  N  N72  1  0.05560800  0.87300600  0.22551500  1
  N  N73  1  0.72866500  0.89538300  0.86754200  1
  N  N74  1  0.72871700  0.51965200  0.93037400  1
  N  N75  1  0.94439200  0.62699400  0.72551500  1
  N  N76  1  0.93251700  0.65734600  0.21155500  1
  N  N77  1  0.72866500  0.39538300  0.63245800  1
  N  N78  1  0.91418900  0.31264900  0.48033600  1
  N  N79  1  0.58581100  0.81264900  0.51966400  1
  N  N80  1  0.27133500  0.10461700  0.13245800  1
  N  N81  1  0.06748300  0.84265400  0.71155500  1
  N  N82  1  0.22871700  0.48034800  0.56962600  1
  N  N83  1  0.35533000  0.19931000  0.92599100  1
  N  N84  1  0.22871700  0.98034800  0.93037400  1
  N  N85  1  0.22866500  0.60461700  0.86754200  1
  N  N86  1  0.58581100  0.31264900  0.98033600  1
  N  N87  1  0.91418900  0.81264900  0.01966400  1
  N  N88  1  0.64467000  0.30069000  0.42599100  1
  N  N89  1  0.08581100  0.68735100  0.51966400  1
  N  N90  1  0.27128300  0.98034800  0.43037400  1
  N  N91  1  0.44439200  0.37300600  0.77448500  1
  N  N92  1  0.77128300  0.01965200  0.06962600  1
  N  N93  1  0.14467000  0.69931000  0.07400900  1
  N  N94  1  0.41418900  0.68735100  0.01966400  1
  N  N95  1  0.85533000  0.80069000  0.57400900  1
  N  N96  1  0.08581100  0.18735100  0.98033600  1
  N  N97  1  0.44439200  0.87300600  0.72551500  1
  N  N98  1  0.93251700  0.15734600  0.28844500  1
  N  N99  1  0.35533000  0.69931000  0.57400900  1
  N  N100  1  0.72871700  0.01965200  0.56962600  1
  N  N101  1  0.55560800  0.12699400  0.27448500  1
  N  N102  1  0.43251700  0.34265400  0.28844500  1
  N  N103  1  0.05560800  0.37300600  0.27448500  1
  N  N104  1  0.41418900  0.18735100  0.48033600  1
  N  N105  1  0.55560800  0.62699400  0.22551500  1
  N  N106  1  0.77133500  0.39538300  0.13245800  1
  N  N107  1  0.64467000  0.80069000  0.07400900  1
  N  N108  1  0.94439200  0.12699400  0.77448500  1
  N  N109  1  0.56748300  0.65734600  0.71155500  1
  N  N110  1  0.43251700  0.84265400  0.21155500  1
  N  N111  1  0.77128300  0.51965200  0.43037400  1
