# generated using pymatgen
data_HoTlSe2
_symmetry_space_group_name_H-M   'P 1'
_cell_length_a   8.12634057
_cell_length_b   8.12634057
_cell_length_c   8.12634099
_cell_angle_alpha   29.80208460
_cell_angle_beta   29.80208460
_cell_angle_gamma   29.80209175
_symmetry_Int_Tables_number   1
_chemical_formula_structural   HoTlSe2
_chemical_formula_sum   'Ho1 Tl1 Se2'
_cell_volume   117.38359360
_cell_formula_units_Z   1
loop_
 _symmetry_equiv_pos_site_id
 _symmetry_equiv_pos_as_xyz
  1  'x, y, z'
loop_
 _atom_site_type_symbol
 _atom_site_label
 _atom_site_symmetry_multiplicity
 _atom_site_fract_x
 _atom_site_fract_y
 _atom_site_fract_z
 _atom_site_occupancy
  Ho  Ho0  1  0.00000000  0.00000000  0.00000000  1
  Tl  Tl1  1  0.50000000  0.50000000  0.50000000  1
  Se  Se2  1  0.73435200  0.73435200  0.73435200  1
  Se  Se3  1  0.26564800  0.26564800  0.26564800  1
