# generated using pymatgen
data_Bi2(PSe3)3
_symmetry_space_group_name_H-M   'P 1'
_cell_length_a   6.97134900
_cell_length_b   12.46791351
_cell_length_c   18.25460202
_cell_angle_alpha   94.29139919
_cell_angle_beta   90.38878161
_cell_angle_gamma   91.58834795
_symmetry_Int_Tables_number   1
_chemical_formula_structural   Bi2(PSe3)3
_chemical_formula_sum   'Bi8 P12 Se36'
_cell_volume   1581.53793359
_cell_formula_units_Z   4
loop_
 _symmetry_equiv_pos_site_id
 _symmetry_equiv_pos_as_xyz
  1  'x, y, z'
loop_
 _atom_site_type_symbol
 _atom_site_label
 _atom_site_symmetry_multiplicity
 _atom_site_fract_x
 _atom_site_fract_y
 _atom_site_fract_z
 _atom_site_occupancy
  Bi  Bi0  1  0.52265400  0.39685600  0.38227200  1
  Bi  Bi1  1  0.06408300  0.46737200  0.81033100  1
  Bi  Bi2  1  0.43528300  0.97557300  0.31217900  1
  Bi  Bi3  1  0.98370200  0.90413000  0.88628100  1
  Bi  Bi4  1  0.01629800  0.09587000  0.11371900  1
  Bi  Bi5  1  0.56471700  0.02442700  0.68782100  1
  Bi  Bi6  1  0.93591700  0.53262800  0.18966900  1
  Bi  Bi7  1  0.47734600  0.60314400  0.61772800  1
  P  P8  1  0.56495400  0.92066800  0.51253900  1
  P  P9  1  0.54718700  0.25240200  0.18054800  1
  P  P10  1  0.05917700  0.48846300  0.44229800  1
  P  P11  1  0.04885500  0.16377600  0.77176500  1
  P  P12  1  0.43147500  0.41275100  0.15266000  1
  P  P13  1  0.92952100  0.17521000  0.88687600  1
  P  P14  1  0.95114500  0.83622400  0.22823500  1
  P  P15  1  0.45281300  0.74759800  0.81945200  1
  P  P16  1  0.43504600  0.07933200  0.48746100  1
  P  P17  1  0.56852500  0.58724900  0.84734000  1
  P  P18  1  0.94082300  0.51153700  0.55770200  1
  P  P19  1  0.07047900  0.82479000  0.11312400  1
  Se  Se20  1  0.16225500  0.38252500  0.08796600  1
  Se  Se21  1  0.30315500  0.18763000  0.24265900  1
  Se  Se22  1  0.67954900  0.06084400  0.88612300  1
  Se  Se23  1  0.30439600  0.27103400  0.77664200  1
  Se  Se24  1  0.17582100  0.78181900  0.29950400  1
  Se  Se25  1  0.69560400  0.72896600  0.22335800  1
  Se  Se26  1  0.64721200  0.14855100  0.41293400  1
  Se  Se27  1  0.33073000  0.59156800  0.44564700  1
  Se  Se28  1  0.13511600  0.65449800  0.08425500  1
  Se  Se29  1  0.37391300  0.16728500  0.59386100  1
  Se  Se30  1  0.64784500  0.48780000  0.08250400  1
  Se  Se31  1  0.12278500  0.31879900  0.41734200  1
  Se  Se32  1  0.20456700  0.69960500  0.74630700  1
  Se  Se33  1  0.35215500  0.51220000  0.91749600  1
  Se  Se34  1  0.79543300  0.30039500  0.25369300  1
  Se  Se35  1  0.86488400  0.34550200  0.91574500  1
  Se  Se36  1  0.88478900  0.01142000  0.25036600  1
  Se  Se37  1  0.84028800  0.56083600  0.37362300  1
  Se  Se38  1  0.69684500  0.81237000  0.75734100  1
  Se  Se39  1  0.66927000  0.40843200  0.55435300  1
  Se  Se40  1  0.11521100  0.98858000  0.74963400  1
  Se  Se41  1  0.35278800  0.85144900  0.58706600  1
  Se  Se42  1  0.32045100  0.93915600  0.11387700  1
  Se  Se43  1  0.38668200  0.83504000  0.92473200  1
  Se  Se44  1  0.87721500  0.68120100  0.58265800  1
  Se  Se45  1  0.83566800  0.89604600  0.04808300  1
  Se  Se46  1  0.17245600  0.03174700  0.42211300  1
  Se  Se47  1  0.37898100  0.51054100  0.25869900  1
  Se  Se48  1  0.62101900  0.48945900  0.74130100  1
  Se  Se49  1  0.83774500  0.61747500  0.91203400  1
  Se  Se50  1  0.15971200  0.43916400  0.62637700  1
  Se  Se51  1  0.82754400  0.96825300  0.57788700  1
  Se  Se52  1  0.62608700  0.83271500  0.40613900  1
  Se  Se53  1  0.61331800  0.16496000  0.07526800  1
  Se  Se54  1  0.16433200  0.10395400  0.95191700  1
  Se  Se55  1  0.82417900  0.21818100  0.70049600  1
