# generated using pymatgen
data_Rb2CuBr3
_symmetry_space_group_name_H-M   'P 1'
_cell_length_a   4.46107400
_cell_length_b   13.33082300
_cell_length_c   13.82245800
_cell_angle_alpha   90.00000000
_cell_angle_beta   90.00000000
_cell_angle_gamma   90.00000000
_symmetry_Int_Tables_number   1
_chemical_formula_structural   Rb2CuBr3
_chemical_formula_sum   'Rb8 Cu4 Br12'
_cell_volume   822.01864529
_cell_formula_units_Z   4
loop_
 _symmetry_equiv_pos_site_id
 _symmetry_equiv_pos_as_xyz
  1  'x, y, z'
loop_
 _atom_site_type_symbol
 _atom_site_label
 _atom_site_symmetry_multiplicity
 _atom_site_fract_x
 _atom_site_fract_y
 _atom_site_fract_z
 _atom_site_occupancy
  Rb  Rb0  1  0.75000000  0.98725400  0.82429400  1
  Rb  Rb1  1  0.25000000  0.01274600  0.17570600  1
  Rb  Rb2  1  0.75000000  0.82629300  0.47618600  1
  Rb  Rb3  1  0.25000000  0.17370700  0.52381400  1
  Rb  Rb4  1  0.75000000  0.48725400  0.67570600  1
  Rb  Rb5  1  0.25000000  0.67370700  0.97618600  1
  Rb  Rb6  1  0.75000000  0.32629300  0.02381400  1
  Rb  Rb7  1  0.25000000  0.51274600  0.32429400  1
  Cu  Cu8  1  0.25000000  0.75542300  0.68947700  1
  Cu  Cu9  1  0.25000000  0.25542300  0.81052300  1
  Cu  Cu10  1  0.75000000  0.24457700  0.31052300  1
  Cu  Cu11  1  0.75000000  0.74457700  0.18947700  1
  Br  Br12  1  0.75000000  0.22665200  0.72033600  1
  Br  Br13  1  0.25000000  0.27334800  0.22033600  1
  Br  Br14  1  0.25000000  0.43376600  0.86050200  1
  Br  Br15  1  0.75000000  0.36235000  0.44765000  1
  Br  Br16  1  0.25000000  0.77334800  0.27966400  1
  Br  Br17  1  0.75000000  0.56623400  0.13949800  1
  Br  Br18  1  0.75000000  0.06623400  0.36050200  1
  Br  Br19  1  0.25000000  0.93376600  0.63949800  1
  Br  Br20  1  0.75000000  0.72665200  0.77966400  1
  Br  Br21  1  0.25000000  0.13765000  0.94765000  1
  Br  Br22  1  0.75000000  0.86235000  0.05235000  1
  Br  Br23  1  0.25000000  0.63765000  0.55235000  1
