# generated using pymatgen
data_Np(FeSi)2
_symmetry_space_group_name_H-M   'P 1'
_cell_length_a   5.48681172
_cell_length_b   5.48681172
_cell_length_c   5.48681172
_cell_angle_alpha   137.77198743
_cell_angle_beta   137.77198743
_cell_angle_gamma   61.25239037
_symmetry_Int_Tables_number   1
_chemical_formula_structural   Np(FeSi)2
_chemical_formula_sum   'Np1 Fe2 Si2'
_cell_volume   73.77735056
_cell_formula_units_Z   1
loop_
 _symmetry_equiv_pos_site_id
 _symmetry_equiv_pos_as_xyz
  1  'x, y, z'
loop_
 _atom_site_type_symbol
 _atom_site_label
 _atom_site_symmetry_multiplicity
 _atom_site_fract_x
 _atom_site_fract_y
 _atom_site_fract_z
 _atom_site_occupancy
  Np  Np0  1  0.00000000  0.00000000  0.00000000  1
  Fe  Fe1  1  0.75000000  0.25000000  0.50000000  1
  Fe  Fe2  1  0.25000000  0.75000000  0.50000000  1
  Si  Si3  1  0.36945600  0.36945600  0.00000000  1
  Si  Si4  1  0.63054400  0.63054400  0.00000000  1
