# generated using pymatgen
data_Gd
_symmetry_space_group_name_H-M   'P 1'
_cell_length_a   3.49602678
_cell_length_b   3.49602678
_cell_length_c   3.49602678
_cell_angle_alpha   109.47122063
_cell_angle_beta   109.47122063
_cell_angle_gamma   109.47122063
_symmetry_Int_Tables_number   1
_chemical_formula_structural   Gd
_chemical_formula_sum   Gd1
_cell_volume   32.89291478
_cell_formula_units_Z   1
loop_
 _symmetry_equiv_pos_site_id
 _symmetry_equiv_pos_as_xyz
  1  'x, y, z'
loop_
 _atom_site_type_symbol
 _atom_site_label
 _atom_site_symmetry_multiplicity
 _atom_site_fract_x
 _atom_site_fract_y
 _atom_site_fract_z
 _atom_site_occupancy
  Gd  Gd0  1  0.00000000  0.00000000  0.00000000  1
