# generated using pymatgen
data_Ba2P7Cl
_symmetry_space_group_name_H-M   'P 1'
_cell_length_a   6.92966900
_cell_length_b   6.42156500
_cell_length_c   11.87969171
_cell_angle_alpha   84.76765860
_cell_angle_beta   90.00000000
_cell_angle_gamma   90.00000000
_symmetry_Int_Tables_number   1
_chemical_formula_structural   Ba2P7Cl
_chemical_formula_sum   'Ba4 P14 Cl2'
_cell_volume   526.43540943
_cell_formula_units_Z   2
loop_
 _symmetry_equiv_pos_site_id
 _symmetry_equiv_pos_as_xyz
  1  'x, y, z'
loop_
 _atom_site_type_symbol
 _atom_site_label
 _atom_site_symmetry_multiplicity
 _atom_site_fract_x
 _atom_site_fract_y
 _atom_site_fract_z
 _atom_site_occupancy
  Ba  Ba0  1  0.25000000  0.22926400  0.95433800  1
  Ba  Ba1  1  0.25000000  0.43275700  0.34693700  1
  Ba  Ba2  1  0.75000000  0.77073600  0.04566200  1
  Ba  Ba3  1  0.75000000  0.56724300  0.65306300  1
  P  P4  1  0.25000000  0.00890300  0.55050900  1
  P  P5  1  0.99397000  0.11701800  0.19523800  1
  P  P6  1  0.75000000  0.32156300  0.22236600  1
  P  P7  1  0.25000000  0.67446700  0.59347700  1
  P  P8  1  0.41970100  0.14471700  0.68688700  1
  P  P9  1  0.08029900  0.14471700  0.68688700  1
  P  P10  1  0.91970100  0.85528300  0.31311300  1
  P  P11  1  0.00603000  0.88298200  0.80476200  1
  P  P12  1  0.25000000  0.67843700  0.77763400  1
  P  P13  1  0.49397000  0.88298200  0.80476200  1
  P  P14  1  0.58029900  0.85528300  0.31311300  1
  P  P15  1  0.75000000  0.32553300  0.40652300  1
  P  P16  1  0.50603000  0.11701800  0.19523800  1
  P  P17  1  0.75000000  0.99109700  0.44949100  1
  Cl  Cl18  1  0.75000000  0.36504100  0.91101300  1
  Cl  Cl19  1  0.25000000  0.63495900  0.08898700  1
