# generated using pymatgen
data_BP2N2Cl7
_symmetry_space_group_name_H-M   'P 1'
_cell_length_a   8.65203800
_cell_length_b   9.98042900
_cell_length_c   15.82556319
_cell_angle_alpha   69.17378488
_cell_angle_beta   90.00000000
_cell_angle_gamma   90.00000000
_symmetry_Int_Tables_number   1
_chemical_formula_structural   BP2N2Cl7
_chemical_formula_sum   'B4 P8 N8 Cl28'
_cell_volume   1277.26761491
_cell_formula_units_Z   4
loop_
 _symmetry_equiv_pos_site_id
 _symmetry_equiv_pos_as_xyz
  1  'x, y, z'
loop_
 _atom_site_type_symbol
 _atom_site_label
 _atom_site_symmetry_multiplicity
 _atom_site_fract_x
 _atom_site_fract_y
 _atom_site_fract_z
 _atom_site_occupancy
  B  B0  1  0.57133700  0.40248600  0.51616200  1
  B  B1  1  0.92866300  0.40248600  0.01616200  1
  B  B2  1  0.42866300  0.59751400  0.48383800  1
  B  B3  1  0.07133700  0.59751400  0.98383800  1
  P  P4  1  0.87545000  0.60633600  0.83582300  1
  P  P5  1  0.47602800  0.16677000  0.83283200  1
  P  P6  1  0.37545000  0.39366400  0.66417700  1
  P  P7  1  0.52397200  0.83323000  0.16716800  1
  P  P8  1  0.62455000  0.60633600  0.33582300  1
  P  P9  1  0.12455000  0.39366400  0.16417700  1
  P  P10  1  0.02397200  0.16677000  0.33283200  1
  P  P11  1  0.97602800  0.83323000  0.66716800  1
  N  N12  1  0.45765000  0.46347800  0.56988600  1
  N  N13  1  0.04235000  0.46347800  0.06988600  1
  N  N14  1  0.95765000  0.53652200  0.93011400  1
  N  N15  1  0.52194800  0.73029200  0.26714900  1
  N  N16  1  0.54235000  0.53652200  0.43011400  1
  N  N17  1  0.47805200  0.26970800  0.73285100  1
  N  N18  1  0.97805200  0.73029200  0.76714900  1
  N  N19  1  0.02194800  0.26970800  0.23285100  1
  Cl  Cl20  1  0.83723200  0.68808700  0.34325400  1
  Cl  Cl21  1  0.68161900  0.07302800  0.86379600  1
  Cl  Cl22  1  0.72616100  0.38377200  0.05910300  1
  Cl  Cl23  1  0.56362600  0.74012600  0.07703100  1
  Cl  Cl24  1  0.17441500  0.54532200  0.21600100  1
  Cl  Cl25  1  0.17506900  0.00533600  0.36233100  1
  Cl  Cl26  1  0.43637400  0.25987400  0.92296900  1
  Cl  Cl27  1  0.82558500  0.45467800  0.78399900  1
  Cl  Cl28  1  0.67441500  0.45467800  0.28399900  1
  Cl  Cl29  1  0.22616100  0.61622800  0.44089700  1
  Cl  Cl30  1  0.66276800  0.68808700  0.84325400  1
  Cl  Cl31  1  0.67506900  0.99466400  0.13766900  1
  Cl  Cl32  1  0.32493100  0.00533600  0.86233100  1
  Cl  Cl33  1  0.33723200  0.31191300  0.15674600  1
  Cl  Cl34  1  0.49173500  0.77024800  0.49381100  1
  Cl  Cl35  1  0.32558500  0.54532200  0.71600100  1
  Cl  Cl36  1  0.81838100  0.07302800  0.36379600  1
  Cl  Cl37  1  0.27383900  0.61622800  0.94089700  1
  Cl  Cl38  1  0.31838100  0.92697200  0.13620400  1
  Cl  Cl39  1  0.16276800  0.31191300  0.65674600  1
  Cl  Cl40  1  0.82493100  0.99466400  0.63766900  1
  Cl  Cl41  1  0.06362600  0.25987400  0.42296900  1
  Cl  Cl42  1  0.99173500  0.22975200  0.00618900  1
  Cl  Cl43  1  0.18161900  0.92697200  0.63620400  1
  Cl  Cl44  1  0.77383900  0.38377200  0.55910300  1
  Cl  Cl45  1  0.93637400  0.74012600  0.57703100  1
  Cl  Cl46  1  0.00826500  0.77024800  0.99381100  1
  Cl  Cl47  1  0.50826500  0.22975200  0.50618900  1
