# generated using pymatgen
data_Er(TiGa2)2
_symmetry_space_group_name_H-M   'P 1'
_cell_length_a   5.49326400
_cell_length_b   5.49326400
_cell_length_c   5.49326400
_cell_angle_alpha   104.27336265
_cell_angle_beta   104.27336265
_cell_angle_gamma   120.45776189
_symmetry_Int_Tables_number   1
_chemical_formula_structural   Er(TiGa2)2
_chemical_formula_sum   'Er1 Ti2 Ga4'
_cell_volume   124.03032672
_cell_formula_units_Z   1
loop_
 _symmetry_equiv_pos_site_id
 _symmetry_equiv_pos_as_xyz
  1  'x, y, z'
loop_
 _atom_site_type_symbol
 _atom_site_label
 _atom_site_symmetry_multiplicity
 _atom_site_fract_x
 _atom_site_fract_y
 _atom_site_fract_z
 _atom_site_occupancy
  Er  Er0  1  0.00000000  0.00000000  0.00000000  1
  Ti  Ti1  1  0.25000000  0.75000000  0.50000000  1
  Ti  Ti2  1  0.75000000  0.25000000  0.50000000  1
  Ga  Ga3  1  0.30123000  0.30123000  0.60246000  1
  Ga  Ga4  1  0.69877000  0.69877000  0.39754000  1
  Ga  Ga5  1  0.69877000  0.30123000  0.00000000  1
  Ga  Ga6  1  0.30123000  0.69877000  0.00000000  1
