# generated using pymatgen
data_Ta
_symmetry_space_group_name_H-M   'P 1'
_cell_length_a   10.24957400
_cell_length_b   10.24957400
_cell_length_c   5.34422000
_cell_angle_alpha   90.00000000
_cell_angle_beta   90.00000000
_cell_angle_gamma   90.00000000
_symmetry_Int_Tables_number   1
_chemical_formula_structural   Ta
_chemical_formula_sum   Ta30
_cell_volume   561.43044365
_cell_formula_units_Z   30
loop_
 _symmetry_equiv_pos_site_id
 _symmetry_equiv_pos_as_xyz
  1  'x, y, z'
loop_
 _atom_site_type_symbol
 _atom_site_label
 _atom_site_symmetry_multiplicity
 _atom_site_fract_x
 _atom_site_fract_y
 _atom_site_fract_z
 _atom_site_occupancy
  Ta  Ta0  1  0.96533400  0.37095400  0.00000000  1
  Ta  Ta1  1  0.26112600  0.93283500  0.50000000  1
  Ta  Ta2  1  0.31864500  0.68135500  0.75002500  1
  Ta  Ta3  1  0.12904600  0.46533400  0.50000000  1
  Ta  Ta4  1  0.87095400  0.53466600  0.50000000  1
  Ta  Ta5  1  0.89526700  0.10473300  0.00000000  1
  Ta  Ta6  1  0.81864500  0.81864500  0.74997500  1
  Ta  Ta7  1  0.18135500  0.18135500  0.25002500  1
  Ta  Ta8  1  0.73887400  0.06716500  0.50000000  1
  Ta  Ta9  1  0.93283500  0.26112600  0.50000000  1
  Ta  Ta10  1  0.39526700  0.39526700  0.50000000  1
  Ta  Ta11  1  0.50000000  0.50000000  0.00000000  1
  Ta  Ta12  1  0.53466600  0.87095400  0.50000000  1
  Ta  Ta13  1  0.56716500  0.76112600  0.00000000  1
  Ta  Ta14  1  0.03466600  0.62904600  0.00000000  1
  Ta  Ta15  1  0.60473300  0.60473300  0.50000000  1
  Ta  Ta16  1  0.31864500  0.68135500  0.24997500  1
  Ta  Ta17  1  0.68135500  0.31864500  0.24997500  1
  Ta  Ta18  1  0.00000000  0.00000000  0.50000000  1
  Ta  Ta19  1  0.81864500  0.81864500  0.25002500  1
  Ta  Ta20  1  0.68135500  0.31864500  0.75002500  1
  Ta  Ta21  1  0.43283500  0.23887400  0.00000000  1
  Ta  Ta22  1  0.18135500  0.18135500  0.74997500  1
  Ta  Ta23  1  0.76112600  0.56716500  0.00000000  1
  Ta  Ta24  1  0.37095400  0.96533400  0.00000000  1
  Ta  Ta25  1  0.06716500  0.73887400  0.50000000  1
  Ta  Ta26  1  0.62904600  0.03466600  0.00000000  1
  Ta  Ta27  1  0.46533400  0.12904600  0.50000000  1
  Ta  Ta28  1  0.23887400  0.43283500  0.00000000  1
  Ta  Ta29  1  0.10473300  0.89526700  0.00000000  1
