# generated using pymatgen
data_K2Ge2Se5
_symmetry_space_group_name_H-M   'P 1'
_cell_length_a   10.03382800
_cell_length_b   10.25008800
_cell_length_c   23.98850230
_cell_angle_alpha   86.65548963
_cell_angle_beta   90.00000000
_cell_angle_gamma   90.00000000
_symmetry_Int_Tables_number   1
_chemical_formula_structural   K2Ge2Se5
_chemical_formula_sum   'K16 Ge16 Se40'
_cell_volume   2462.95829230
_cell_formula_units_Z   8
loop_
 _symmetry_equiv_pos_site_id
 _symmetry_equiv_pos_as_xyz
  1  'x, y, z'
loop_
 _atom_site_type_symbol
 _atom_site_label
 _atom_site_symmetry_multiplicity
 _atom_site_fract_x
 _atom_site_fract_y
 _atom_site_fract_z
 _atom_site_occupancy
  K  K0  1  0.61957600  0.84084200  0.65667100  1
  K  K1  1  0.64632400  0.32017200  0.73918400  1
  K  K2  1  0.85367600  0.32017200  0.23918400  1
  K  K3  1  0.00195900  0.56706000  0.60476400  1
  K  K4  1  0.87946700  0.31710400  0.00298100  1
  K  K5  1  0.14632400  0.67982800  0.76081600  1
  K  K6  1  0.11957600  0.15915800  0.84332900  1
  K  K7  1  0.49804100  0.56706000  0.10476400  1
  K  K8  1  0.50195900  0.43294000  0.89523600  1
  K  K9  1  0.35367600  0.67982800  0.26081600  1
  K  K10  1  0.38042400  0.15915800  0.34332900  1
  K  K11  1  0.99804100  0.43294000  0.39523600  1
  K  K12  1  0.88042400  0.84084200  0.15667100  1
  K  K13  1  0.12053300  0.68289600  0.99701900  1
  K  K14  1  0.37946700  0.68289600  0.49701900  1
  K  K15  1  0.62053300  0.31710400  0.50298100  1
  Ge  Ge16  1  0.41562500  0.83941600  0.87923100  1
  Ge  Ge17  1  0.08437500  0.83941600  0.37923100  1
  Ge  Ge18  1  0.25762500  0.27383100  0.19275300  1
  Ge  Ge19  1  0.77156800  0.73984400  0.46823500  1
  Ge  Ge20  1  0.91562500  0.16058400  0.62076900  1
  Ge  Ge21  1  0.72818600  0.05372700  0.87560700  1
  Ge  Ge22  1  0.22818600  0.94627300  0.62439300  1
  Ge  Ge23  1  0.27156800  0.26015600  0.03176500  1
  Ge  Ge24  1  0.22843200  0.26015600  0.53176500  1
  Ge  Ge25  1  0.58437500  0.16058400  0.12076900  1
  Ge  Ge26  1  0.75762500  0.72616900  0.30724700  1
  Ge  Ge27  1  0.72843200  0.73984400  0.96823500  1
  Ge  Ge28  1  0.27181400  0.94627300  0.12439300  1
  Ge  Ge29  1  0.24237500  0.27383100  0.69275300  1
  Ge  Ge30  1  0.77181400  0.05372700  0.37560700  1
  Ge  Ge31  1  0.74237500  0.72616900  0.80724700  1
  Se  Se32  1  0.69435400  0.63034900  0.54890700  1
  Se  Se33  1  0.81762800  0.94898400  0.79575500  1
  Se  Se34  1  0.31762800  0.05101600  0.70424500  1
  Se  Se35  1  0.01075400  0.06161200  0.37219700  1
  Se  Se36  1  0.30964600  0.03972600  0.53645100  1
  Se  Se37  1  0.81278800  0.16328500  0.12464500  1
  Se  Se38  1  0.51075400  0.93838800  0.12780300  1
  Se  Se39  1  0.51229100  0.27222100  0.03346300  1
  Se  Se40  1  0.80564600  0.63034900  0.04890700  1
  Se  Se41  1  0.67972600  0.61846300  0.39360500  1
  Se  Se42  1  0.20370300  0.73053900  0.13280000  1
  Se  Se43  1  0.18237200  0.05101600  0.20424500  1
  Se  Se44  1  0.01229100  0.72777900  0.46653700  1
  Se  Se45  1  0.31278800  0.83671500  0.37535500  1
  Se  Se46  1  0.69035400  0.96027400  0.46354900  1
  Se  Se47  1  0.32027400  0.38153700  0.60639500  1
  Se  Se48  1  0.31639200  0.38697700  0.76716500  1
  Se  Se49  1  0.49892700  0.28450500  0.19644500  1
  Se  Se50  1  0.18360800  0.38697700  0.26716500  1
  Se  Se51  1  0.18721200  0.83671500  0.87535500  1
  Se  Se52  1  0.68360800  0.61302300  0.23283500  1
  Se  Se53  1  0.82027400  0.61846300  0.89360500  1
  Se  Se54  1  0.80964600  0.96027400  0.96354900  1
  Se  Se55  1  0.68721200  0.16328500  0.62464500  1
  Se  Se56  1  0.50107300  0.71549500  0.80355500  1
  Se  Se57  1  0.98924600  0.93838800  0.62780300  1
  Se  Se58  1  0.17972600  0.38153700  0.10639500  1
  Se  Se59  1  0.19435400  0.36965100  0.95109300  1
  Se  Se60  1  0.98770900  0.27222100  0.53346300  1
  Se  Se61  1  0.81639200  0.61302300  0.73283500  1
  Se  Se62  1  0.48924600  0.06161200  0.87219700  1
  Se  Se63  1  0.99892700  0.71549500  0.30355500  1
  Se  Se64  1  0.19035400  0.03972600  0.03645100  1
  Se  Se65  1  0.30564600  0.36965100  0.45109300  1
  Se  Se66  1  0.48770900  0.72777900  0.96653700  1
  Se  Se67  1  0.79629700  0.26946100  0.86720000  1
  Se  Se68  1  0.68237200  0.94898400  0.29575500  1
  Se  Se69  1  0.29629700  0.73053900  0.63280000  1
  Se  Se70  1  0.00107300  0.28450500  0.69644500  1
  Se  Se71  1  0.70370300  0.26946100  0.36720000  1
