# generated using pymatgen
data_AgBi2Se3Cl
_symmetry_space_group_name_H-M   'P 1'
_cell_length_a   4.14931500
_cell_length_b   8.15012300
_cell_length_c   11.31062571
_cell_angle_alpha   75.80701241
_cell_angle_beta   90.00000000
_cell_angle_gamma   90.00000000
_symmetry_Int_Tables_number   1
_chemical_formula_structural   AgBi2Se3Cl
_chemical_formula_sum   'Ag2 Bi4 Se6 Cl2'
_cell_volume   370.82070771
_cell_formula_units_Z   2
loop_
 _symmetry_equiv_pos_site_id
 _symmetry_equiv_pos_as_xyz
  1  'x, y, z'
loop_
 _atom_site_type_symbol
 _atom_site_label
 _atom_site_symmetry_multiplicity
 _atom_site_fract_x
 _atom_site_fract_y
 _atom_site_fract_z
 _atom_site_occupancy
  Ag  Ag0  1  0.75000000  0.04711300  0.58705800  1
  Ag  Ag1  1  0.25000000  0.95288700  0.41294200  1
  Bi  Bi2  1  0.25000000  0.80900300  0.93425300  1
  Bi  Bi3  1  0.75000000  0.19099700  0.06574700  1
  Bi  Bi4  1  0.75000000  0.53265300  0.65627500  1
  Bi  Bi5  1  0.25000000  0.46734700  0.34372500  1
  Se  Se6  1  0.25000000  0.79591200  0.66550300  1
  Se  Se7  1  0.25000000  0.95556000  0.15013800  1
  Se  Se8  1  0.25000000  0.30976800  0.58789000  1
  Se  Se9  1  0.75000000  0.69023200  0.41211000  1
  Se  Se10  1  0.75000000  0.20408800  0.33449700  1
  Se  Se11  1  0.75000000  0.04444000  0.84986200  1
  Cl  Cl12  1  0.25000000  0.40336100  0.90206200  1
  Cl  Cl13  1  0.75000000  0.59663900  0.09793800  1
