# generated using pymatgen
data_K3Bi
_symmetry_space_group_name_H-M   'P 1'
_cell_length_a   6.24571847
_cell_length_b   6.24571847
_cell_length_c   11.09282400
_cell_angle_alpha   90.00000000
_cell_angle_beta   90.00000000
_cell_angle_gamma   120.00000502
_symmetry_Int_Tables_number   1
_chemical_formula_structural   K3Bi
_chemical_formula_sum   'K6 Bi2'
_cell_volume   374.74646185
_cell_formula_units_Z   2
loop_
 _symmetry_equiv_pos_site_id
 _symmetry_equiv_pos_as_xyz
  1  'x, y, z'
loop_
 _atom_site_type_symbol
 _atom_site_label
 _atom_site_symmetry_multiplicity
 _atom_site_fract_x
 _atom_site_fract_y
 _atom_site_fract_z
 _atom_site_occupancy
  K  K0  1  0.33333300  0.66666700  0.91808100  1
  K  K1  1  0.66666700  0.33333300  0.41808100  1
  K  K2  1  0.00000000  0.00000000  0.25000000  1
  K  K3  1  0.66666700  0.33333300  0.08191900  1
  K  K4  1  0.00000000  0.00000000  0.75000000  1
  K  K5  1  0.33333300  0.66666700  0.58191900  1
  Bi  Bi6  1  0.66666700  0.33333300  0.75000000  1
  Bi  Bi7  1  0.33333300  0.66666700  0.25000000  1
