# generated using pymatgen
data_Al6Fe
_symmetry_space_group_name_H-M   'P 1'
_cell_length_a   4.91636044
_cell_length_b   4.91636044
_cell_length_c   8.81622600
_cell_angle_alpha   90.00000000
_cell_angle_beta   90.00000000
_cell_angle_gamma   98.16301615
_symmetry_Int_Tables_number   1
_chemical_formula_structural   Al6Fe
_chemical_formula_sum   'Al12 Fe2'
_cell_volume   210.93442771
_cell_formula_units_Z   2
loop_
 _symmetry_equiv_pos_site_id
 _symmetry_equiv_pos_as_xyz
  1  'x, y, z'
loop_
 _atom_site_type_symbol
 _atom_site_label
 _atom_site_symmetry_multiplicity
 _atom_site_fract_x
 _atom_site_fract_y
 _atom_site_fract_z
 _atom_site_occupancy
  Al  Al0  1  0.32259800  0.67740200  0.00000000  1
  Al  Al1  1  0.14590500  0.14590500  0.59789300  1
  Al  Al2  1  0.32259800  0.67740200  0.50000000  1
  Al  Al3  1  0.85409500  0.85409500  0.40210700  1
  Al  Al4  1  0.39217500  0.02848700  0.25000000  1
  Al  Al5  1  0.67740200  0.32259800  0.50000000  1
  Al  Al6  1  0.14590500  0.14590500  0.90210700  1
  Al  Al7  1  0.60782500  0.97151300  0.75000000  1
  Al  Al8  1  0.97151300  0.60782500  0.75000000  1
  Al  Al9  1  0.02848700  0.39217500  0.25000000  1
  Al  Al10  1  0.85409500  0.85409500  0.09789300  1
  Al  Al11  1  0.67740200  0.32259800  0.00000000  1
  Fe  Fe12  1  0.46006900  0.46006900  0.75000000  1
  Fe  Fe13  1  0.53993100  0.53993100  0.25000000  1
