# generated using pymatgen
data_RbVBr3
_symmetry_space_group_name_H-M   'P 1'
_cell_length_a   7.55185141
_cell_length_b   7.55185141
_cell_length_c   6.51622200
_cell_angle_alpha   90.00000000
_cell_angle_beta   90.00000000
_cell_angle_gamma   119.99999486
_symmetry_Int_Tables_number   1
_chemical_formula_structural   RbVBr3
_chemical_formula_sum   'Rb2 V2 Br6'
_cell_volume   321.83509360
_cell_formula_units_Z   2
loop_
 _symmetry_equiv_pos_site_id
 _symmetry_equiv_pos_as_xyz
  1  'x, y, z'
loop_
 _atom_site_type_symbol
 _atom_site_label
 _atom_site_symmetry_multiplicity
 _atom_site_fract_x
 _atom_site_fract_y
 _atom_site_fract_z
 _atom_site_occupancy
  Rb  Rb0  1  0.66666700  0.33333300  0.25000000  1
  Rb  Rb1  1  0.33333300  0.66666700  0.75000000  1
  V  V2  1  0.00000000  0.00000000  0.00000000  1
  V  V3  1  0.00000000  0.00000000  0.50000000  1
  Br  Br4  1  0.15942600  0.31885100  0.25000000  1
  Br  Br5  1  0.84057400  0.15942600  0.75000000  1
  Br  Br6  1  0.15942600  0.84057400  0.25000000  1
  Br  Br7  1  0.31885100  0.15942600  0.75000000  1
  Br  Br8  1  0.68114900  0.84057400  0.25000000  1
  Br  Br9  1  0.84057400  0.68114900  0.75000000  1
