# generated using pymatgen
data_ZrBrN
_symmetry_space_group_name_H-M   'P 1'
_cell_length_a   3.63901600
_cell_length_b   4.17167600
_cell_length_c   9.00388000
_cell_angle_alpha   90.00000000
_cell_angle_beta   90.00000000
_cell_angle_gamma   90.00000000
_symmetry_Int_Tables_number   1
_chemical_formula_structural   ZrBrN
_chemical_formula_sum   'Zr2 Br2 N2'
_cell_volume   136.68606288
_cell_formula_units_Z   2
loop_
 _symmetry_equiv_pos_site_id
 _symmetry_equiv_pos_as_xyz
  1  'x, y, z'
loop_
 _atom_site_type_symbol
 _atom_site_label
 _atom_site_symmetry_multiplicity
 _atom_site_fract_x
 _atom_site_fract_y
 _atom_site_fract_z
 _atom_site_occupancy
  Zr  Zr0  1  0.00000000  0.50000000  0.09836500  1
  Zr  Zr1  1  0.50000000  0.00000000  0.90163500  1
  Br  Br2  1  0.00000000  0.00000000  0.66754200  1
  Br  Br3  1  0.50000000  0.50000000  0.33245800  1
  N  N4  1  0.00000000  0.00000000  0.03204500  1
  N  N5  1  0.50000000  0.50000000  0.96795500  1
