# generated using pymatgen
data_K2SnCl6
_symmetry_space_group_name_H-M   'P 1'
_cell_length_a   7.29233100
_cell_length_b   7.29233100
_cell_length_c   10.06924500
_cell_angle_alpha   90.00000000
_cell_angle_beta   90.00000000
_cell_angle_gamma   90.00000000
_symmetry_Int_Tables_number   1
_chemical_formula_structural   K2SnCl6
_chemical_formula_sum   'K4 Sn2 Cl12'
_cell_volume   535.46323108
_cell_formula_units_Z   2
loop_
 _symmetry_equiv_pos_site_id
 _symmetry_equiv_pos_as_xyz
  1  'x, y, z'
loop_
 _atom_site_type_symbol
 _atom_site_label
 _atom_site_symmetry_multiplicity
 _atom_site_fract_x
 _atom_site_fract_y
 _atom_site_fract_z
 _atom_site_occupancy
  K  K0  1  0.00000000  0.50000000  0.25000000  1
  K  K1  1  0.00000000  0.50000000  0.75000000  1
  K  K2  1  0.50000000  0.00000000  0.75000000  1
  K  K3  1  0.50000000  0.00000000  0.25000000  1
  Sn  Sn4  1  0.50000000  0.50000000  0.50000000  1
  Sn  Sn5  1  0.00000000  0.00000000  0.00000000  1
  Cl  Cl6  1  0.50000000  0.50000000  0.25528300  1
  Cl  Cl7  1  0.74538800  0.77684200  0.00000000  1
  Cl  Cl8  1  0.22315800  0.74538800  0.00000000  1
  Cl  Cl9  1  0.00000000  0.00000000  0.75528300  1
  Cl  Cl10  1  0.25461200  0.22315800  0.00000000  1
  Cl  Cl11  1  0.27684200  0.24538800  0.50000000  1
  Cl  Cl12  1  0.72315800  0.75461200  0.50000000  1
  Cl  Cl13  1  0.24538800  0.72315800  0.50000000  1
  Cl  Cl14  1  0.50000000  0.50000000  0.74471700  1
  Cl  Cl15  1  0.75461200  0.27684200  0.50000000  1
  Cl  Cl16  1  0.00000000  0.00000000  0.24471700  1
  Cl  Cl17  1  0.77684200  0.25461200  0.00000000  1
