# generated using pymatgen
data_Zr5Sb4
_symmetry_space_group_name_H-M   'P 1'
_cell_length_a   8.85183390
_cell_length_b   8.85183390
_cell_length_c   5.96452200
_cell_angle_alpha   90.00000000
_cell_angle_beta   90.00000000
_cell_angle_gamma   119.99999926
_symmetry_Int_Tables_number   1
_chemical_formula_structural   Zr5Sb4
_chemical_formula_sum   'Zr10 Sb8'
_cell_volume   404.73689155
_cell_formula_units_Z   2
loop_
 _symmetry_equiv_pos_site_id
 _symmetry_equiv_pos_as_xyz
  1  'x, y, z'
loop_
 _atom_site_type_symbol
 _atom_site_label
 _atom_site_symmetry_multiplicity
 _atom_site_fract_x
 _atom_site_fract_y
 _atom_site_fract_z
 _atom_site_occupancy
  Zr  Zr0  1  0.28074300  0.28074300  0.75000000  1
  Zr  Zr1  1  0.71925700  0.71925700  0.25000000  1
  Zr  Zr2  1  0.71925700  0.00000000  0.75000000  1
  Zr  Zr3  1  0.00000000  0.28074300  0.25000000  1
  Zr  Zr4  1  0.33333300  0.66666700  0.50000000  1
  Zr  Zr5  1  0.66666700  0.33333300  0.50000000  1
  Zr  Zr6  1  0.00000000  0.71925700  0.75000000  1
  Zr  Zr7  1  0.33333300  0.66666700  0.00000000  1
  Zr  Zr8  1  0.28074300  0.00000000  0.25000000  1
  Zr  Zr9  1  0.66666700  0.33333300  0.00000000  1
  Sb  Sb10  1  0.00000000  0.00000000  0.50000000  1
  Sb  Sb11  1  0.61032500  0.61032500  0.75000000  1
  Sb  Sb12  1  0.38967500  0.00000000  0.75000000  1
  Sb  Sb13  1  0.00000000  0.00000000  0.00000000  1
  Sb  Sb14  1  0.61032500  0.00000000  0.25000000  1
  Sb  Sb15  1  0.38967500  0.38967500  0.25000000  1
  Sb  Sb16  1  0.00000000  0.38967500  0.75000000  1
  Sb  Sb17  1  0.00000000  0.61032500  0.25000000  1
