# generated using pymatgen
data_Nb5Ga3
_symmetry_space_group_name_H-M   'P 1'
_cell_length_a   7.75590504
_cell_length_b   7.75590504
_cell_length_c   7.75590504
_cell_angle_alpha   96.22548278
_cell_angle_beta   96.22548278
_cell_angle_gamma   141.54685725
_symmetry_Int_Tables_number   1
_chemical_formula_structural   Nb5Ga3
_chemical_formula_sum   'Nb10 Ga6'
_cell_volume   273.95236295
_cell_formula_units_Z   2
loop_
 _symmetry_equiv_pos_site_id
 _symmetry_equiv_pos_as_xyz
  1  'x, y, z'
loop_
 _atom_site_type_symbol
 _atom_site_label
 _atom_site_symmetry_multiplicity
 _atom_site_fract_x
 _atom_site_fract_y
 _atom_site_fract_z
 _atom_site_occupancy
  Nb  Nb0  1  0.25000000  0.75000000  0.50000000  1
  Nb  Nb1  1  0.75000000  0.25000000  0.50000000  1
  Nb  Nb2  1  0.22166000  0.07556800  0.29722900  1
  Nb  Nb3  1  0.77834000  0.92443200  0.70277100  1
  Nb  Nb4  1  0.27834000  0.57556800  0.85390800  1
  Nb  Nb5  1  0.72166000  0.42443200  0.14609200  1
  Nb  Nb6  1  0.07556800  0.77834000  0.85390800  1
  Nb  Nb7  1  0.92443200  0.22166000  0.14609200  1
  Nb  Nb8  1  0.57556800  0.72166000  0.29722900  1
  Nb  Nb9  1  0.42443200  0.27834000  0.70277100  1
  Ga  Ga10  1  0.75000000  0.75000000  0.00000000  1
  Ga  Ga11  1  0.25000000  0.25000000  0.00000000  1
  Ga  Ga12  1  0.66578200  0.16578200  0.83156300  1
  Ga  Ga13  1  0.33421800  0.83421800  0.16843700  1
  Ga  Ga14  1  0.83421800  0.66578200  0.50000000  1
  Ga  Ga15  1  0.16578200  0.33421800  0.50000000  1
