# generated using pymatgen
data_MgHg2
_symmetry_space_group_name_H-M   'P 1'
_cell_length_a   5.26767254
_cell_length_b   5.26767254
_cell_length_c   5.26767254
_cell_angle_alpha   136.38086118
_cell_angle_beta   136.38086118
_cell_angle_gamma   63.39206431
_symmetry_Int_Tables_number   1
_chemical_formula_structural   MgHg2
_chemical_formula_sum   'Mg1 Hg2'
_cell_volume   68.66559884
_cell_formula_units_Z   1
loop_
 _symmetry_equiv_pos_site_id
 _symmetry_equiv_pos_as_xyz
  1  'x, y, z'
loop_
 _atom_site_type_symbol
 _atom_site_label
 _atom_site_symmetry_multiplicity
 _atom_site_fract_x
 _atom_site_fract_y
 _atom_site_fract_z
 _atom_site_occupancy
  Mg  Mg0  1  0.00000000  0.00000000  0.00000000  1
  Hg  Hg1  1  0.66652000  0.66652000  0.00000000  1
  Hg  Hg2  1  0.33348000  0.33348000  0.00000000  1
