# generated using pymatgen
data_CdI2
_symmetry_space_group_name_H-M   'P 1'
_cell_length_a   4.33676778
_cell_length_b   4.33676778
_cell_length_c   100.60840400
_cell_angle_alpha   90.00000000
_cell_angle_beta   90.00000000
_cell_angle_gamma   119.99999659
_symmetry_Int_Tables_number   1
_chemical_formula_structural   CdI2
_chemical_formula_sum   'Cd13 I26'
_cell_volume   1638.69165057
_cell_formula_units_Z   13
loop_
 _symmetry_equiv_pos_site_id
 _symmetry_equiv_pos_as_xyz
  1  'x, y, z'
loop_
 _atom_site_type_symbol
 _atom_site_label
 _atom_site_symmetry_multiplicity
 _atom_site_fract_x
 _atom_site_fract_y
 _atom_site_fract_z
 _atom_site_occupancy
  Cd  Cd0  1  0.00000000  0.00000000  0.71153000  1
  Cd  Cd1  1  0.33333300  0.66666700  0.86538900  1
  Cd  Cd2  1  0.00000000  0.00000000  0.17313700  1
  Cd  Cd3  1  0.00000000  0.00000000  0.40379900  1
  Cd  Cd4  1  0.00000000  0.00000000  0.32694500  1
  Cd  Cd5  1  0.33333300  0.66666700  0.94229500  1
  Cd  Cd6  1  0.00000000  0.00000000  0.78846500  1
  Cd  Cd7  1  0.33333300  0.66666700  0.48085200  1
  Cd  Cd8  1  0.33333300  0.66666700  0.09617400  1
  Cd  Cd9  1  0.33333300  0.66666700  0.63457700  1
  Cd  Cd10  1  0.33333300  0.66666700  0.25000300  1
  Cd  Cd11  1  0.00000000  0.00000000  0.55772200  1
  Cd  Cd12  1  0.00000000  0.00000000  0.01912200  1
  I  I13  1  0.66666700  0.33333300  0.80557100  1
  I  I14  1  0.00000000  0.00000000  0.92519800  1
  I  I15  1  0.33333300  0.66666700  0.54062300  1
  I  I16  1  0.33333300  0.66666700  0.30984600  1
  I  I17  1  0.66666700  0.33333300  0.65166200  1
  I  I18  1  0.33333300  0.66666700  0.15604200  1
  I  I19  1  0.66666700  0.33333300  0.34404300  1
  I  I20  1  0.66666700  0.33333300  0.88247700  1
  I  I21  1  0.66666700  0.33333300  0.03622900  1
  I  I22  1  0.66666700  0.33333300  0.95938900  1
  I  I23  1  0.00000000  0.00000000  0.23291800  1
  I  I24  1  0.00000000  0.00000000  0.07908100  1
  I  I25  1  0.33333300  0.66666700  0.77135800  1
  I  I26  1  0.33333300  0.66666700  0.69444600  1
  I  I27  1  0.66666700  0.33333300  0.42090700  1
  I  I28  1  0.00000000  0.00000000  0.84829500  1
  I  I29  1  0.66666700  0.33333300  0.26708800  1
  I  I30  1  0.33333300  0.66666700  0.00200600  1
  I  I31  1  0.66666700  0.33333300  0.11325600  1
  I  I32  1  0.66666700  0.33333300  0.19023900  1
  I  I33  1  0.66666700  0.33333300  0.72861100  1
  I  I34  1  0.00000000  0.00000000  0.46375700  1
  I  I35  1  0.00000000  0.00000000  0.61749200  1
  I  I36  1  0.66666700  0.33333300  0.57482700  1
  I  I37  1  0.33333300  0.66666700  0.38668700  1
  I  I38  1  0.66666700  0.33333300  0.49794300  1
