# generated using pymatgen
data_CdI2
_symmetry_space_group_name_H-M   'P 1'
_cell_length_a   4.33587261
_cell_length_b   4.33587261
_cell_length_c   101.76493300
_cell_angle_alpha   90.00000000
_cell_angle_beta   90.00000000
_cell_angle_gamma   120.00000926
_symmetry_Int_Tables_number   1
_chemical_formula_structural   CdI2
_chemical_formula_sum   'Cd13 I26'
_cell_volume   1656.84457228
_cell_formula_units_Z   13
loop_
 _symmetry_equiv_pos_site_id
 _symmetry_equiv_pos_as_xyz
  1  'x, y, z'
loop_
 _atom_site_type_symbol
 _atom_site_label
 _atom_site_symmetry_multiplicity
 _atom_site_fract_x
 _atom_site_fract_y
 _atom_site_fract_z
 _atom_site_occupancy
  Cd  Cd0  1  0.00000000  0.00000000  0.40379300  1
  Cd  Cd1  1  0.00000000  0.00000000  0.63461700  1
  Cd  Cd2  1  0.00000000  0.00000000  0.78849300  1
  Cd  Cd3  1  0.66666700  0.33333300  0.48072900  1
  Cd  Cd4  1  0.00000000  0.00000000  0.55763900  1
  Cd  Cd5  1  0.66666700  0.33333300  0.17317500  1
  Cd  Cd6  1  0.00000000  0.00000000  0.94236000  1
  Cd  Cd7  1  0.66666700  0.33333300  0.32689900  1
  Cd  Cd8  1  0.33333300  0.66666700  0.86542900  1
  Cd  Cd9  1  0.00000000  0.00000000  0.71155100  1
  Cd  Cd10  1  0.00000000  0.00000000  0.09615500  1
  Cd  Cd11  1  0.66666700  0.33333300  0.01915000  1
  Cd  Cd12  1  0.00000000  0.00000000  0.24995400  1
  I  I13  1  0.66666700  0.33333300  0.69464400  1
  I  I14  1  0.33333300  0.66666700  0.80541700  1
  I  I15  1  0.66666700  0.33333300  0.23303300  1
  I  I16  1  0.33333300  0.66666700  0.65154300  1
  I  I17  1  0.00000000  0.00000000  0.15622300  1
  I  I18  1  0.00000000  0.00000000  0.46383900  1
  I  I19  1  0.33333300  0.66666700  0.34384500  1
  I  I20  1  0.33333300  0.66666700  0.03606500  1
  I  I21  1  0.33333300  0.66666700  0.95930200  1
  I  I22  1  0.66666700  0.33333300  0.92543000  1
  I  I23  1  0.66666700  0.33333300  0.38688800  1
  I  I24  1  0.33333300  0.66666700  0.42071300  1
  I  I25  1  0.66666700  0.33333300  0.84848300  1
  I  I26  1  0.33333300  0.66666700  0.26688400  1
  I  I27  1  0.33333300  0.66666700  0.57458500  1
  I  I28  1  0.66666700  0.33333300  0.54069100  1
  I  I29  1  0.33333300  0.66666700  0.11307500  1
  I  I30  1  0.33333300  0.66666700  0.19009400  1
  I  I31  1  0.33333300  0.66666700  0.72844700  1
  I  I32  1  0.00000000  0.00000000  0.88236700  1
  I  I33  1  0.00000000  0.00000000  0.30997400  1
  I  I34  1  0.66666700  0.33333300  0.61769800  1
  I  I35  1  0.00000000  0.00000000  0.00223700  1
  I  I36  1  0.66666700  0.33333300  0.07923300  1
  I  I37  1  0.33333300  0.66666700  0.49765000  1
  I  I38  1  0.66666700  0.33333300  0.77159700  1
