# generated using pymatgen
data_SrAlSi4N7
_symmetry_space_group_name_H-M   'P 1'
_cell_length_a   4.97249500
_cell_length_b   11.81134500
_cell_length_c   21.27813000
_cell_angle_alpha   90.00000000
_cell_angle_beta   90.00000000
_cell_angle_gamma   90.00000000
_symmetry_Int_Tables_number   1
_chemical_formula_structural   SrAlSi4N7
_chemical_formula_sum   'Sr8 Al8 Si32 N56'
_cell_volume   1249.70402361
_cell_formula_units_Z   8
loop_
 _symmetry_equiv_pos_site_id
 _symmetry_equiv_pos_as_xyz
  1  'x, y, z'
loop_
 _atom_site_type_symbol
 _atom_site_label
 _atom_site_symmetry_multiplicity
 _atom_site_fract_x
 _atom_site_fract_y
 _atom_site_fract_z
 _atom_site_occupancy
  Sr  Sr0  1  0.93598600  0.22676100  0.01051200  1
  Sr  Sr1  1  0.43598600  0.27323900  0.51051200  1
  Sr  Sr2  1  0.46676100  0.15032800  0.79779500  1
  Sr  Sr3  1  0.46676100  0.65032800  0.70220500  1
  Sr  Sr4  1  0.43598600  0.77323900  0.98948800  1
  Sr  Sr5  1  0.93598600  0.72676100  0.48948800  1
  Sr  Sr6  1  0.96676100  0.34967200  0.29779500  1
  Sr  Sr7  1  0.96676100  0.84967200  0.20220500  1
  Al  Al8  1  0.22987400  0.65995600  0.84829300  1
  Al  Al9  1  0.72987400  0.34004400  0.15170700  1
  Al  Al10  1  0.73763200  0.66122000  0.84972100  1
  Al  Al11  1  0.23763200  0.83878000  0.34972100  1
  Al  Al12  1  0.23763200  0.33878000  0.15027900  1
  Al  Al13  1  0.72987400  0.84004400  0.34829300  1
  Al  Al14  1  0.73763200  0.16122000  0.65027900  1
  Al  Al15  1  0.22987400  0.15995600  0.65170700  1
  Si  Si16  1  0.45783300  0.96604200  0.11027100  1
  Si  Si17  1  0.46880300  0.92886100  0.69962000  1
  Si  Si18  1  0.94968600  0.80988300  0.63909300  1
  Si  Si19  1  0.47072800  0.89853700  0.84690900  1
  Si  Si20  1  0.47072800  0.39853700  0.65309100  1
  Si  Si21  1  0.45783300  0.46604200  0.38972900  1
  Si  Si22  1  0.45975200  0.49888100  0.04424200  1
  Si  Si23  1  0.44968600  0.19011700  0.36090700  1
  Si  Si24  1  0.96880300  0.57113900  0.19962000  1
  Si  Si25  1  0.96880300  0.07113900  0.30038000  1
  Si  Si26  1  0.95717100  0.93981200  0.03331600  1
  Si  Si27  1  0.94658700  0.16232500  0.43470100  1
  Si  Si28  1  0.46889800  0.14079400  0.22330100  1
  Si  Si29  1  0.94658700  0.66232500  0.06529900  1
  Si  Si30  1  0.95717100  0.43981200  0.46668400  1
  Si  Si31  1  0.94968600  0.30988300  0.86090700  1
  Si  Si32  1  0.95975200  0.50111900  0.95575800  1
  Si  Si33  1  0.44658700  0.33767500  0.93470100  1
  Si  Si34  1  0.44658700  0.83767500  0.56529900  1
  Si  Si35  1  0.96889800  0.85920600  0.77669900  1
  Si  Si36  1  0.45717100  0.56018800  0.53331600  1
  Si  Si37  1  0.46880300  0.42886100  0.80038000  1
  Si  Si38  1  0.97072800  0.60146300  0.34690900  1
  Si  Si39  1  0.96889800  0.35920600  0.72330100  1
  Si  Si40  1  0.44968600  0.69011700  0.13909300  1
  Si  Si41  1  0.45717100  0.06018800  0.96668400  1
  Si  Si42  1  0.95975200  0.00111900  0.54424200  1
  Si  Si43  1  0.95783300  0.03395800  0.88972900  1
  Si  Si44  1  0.45975200  0.99888100  0.45575800  1
  Si  Si45  1  0.95783300  0.53395800  0.61027100  1
  Si  Si46  1  0.46889800  0.64079400  0.27669900  1
  Si  Si47  1  0.97072800  0.10146300  0.15309100  1
  N  N48  1  0.29082500  0.13220300  0.29463000  1
  N  N49  1  0.80269900  0.08861500  0.22686600  1
  N  N50  1  0.80505300  0.00292400  0.10168800  1
  N  N51  1  0.30269900  0.41138500  0.72686600  1
  N  N52  1  0.42565800  0.70387800  0.53259800  1
  N  N53  1  0.80123300  0.51054900  0.53346900  1
  N  N54  1  0.98569900  0.93281800  0.31473000  1
  N  N55  1  0.80123300  0.01054900  0.96653100  1
  N  N56  1  0.29745400  0.34474800  0.85797300  1
  N  N57  1  0.48569900  0.56718200  0.81473000  1
  N  N58  1  0.79745400  0.65525200  0.14202700  1
  N  N59  1  0.98280300  0.71974700  0.79282600  1
  N  N60  1  0.27830400  0.94429400  0.52096400  1
  N  N61  1  0.29745400  0.84474800  0.64202700  1
  N  N62  1  0.77830400  0.05570600  0.47903600  1
  N  N63  1  0.98987600  0.10757900  0.59494100  1
  N  N64  1  0.97876900  0.73371200  0.37552800  1
  N  N65  1  0.30004400  0.55318700  0.33300200  1
  N  N66  1  0.80505300  0.50292400  0.39831200  1
  N  N67  1  0.48280300  0.78025300  0.29282600  1
  N  N68  1  0.78973900  0.87808700  0.57322900  1
  N  N69  1  0.91186500  0.66887900  0.63253800  1
  N  N70  1  0.77830400  0.55570600  0.02096400  1
  N  N71  1  0.98987600  0.60757900  0.90505900  1
  N  N72  1  0.80004400  0.94681300  0.83300200  1
  N  N73  1  0.48987600  0.39242100  0.09494100  1
  N  N74  1  0.28973900  0.62191300  0.07322900  1
  N  N75  1  0.30505300  0.49707600  0.60168800  1
  N  N76  1  0.41186500  0.33112100  0.36746200  1
  N  N77  1  0.98280300  0.21974700  0.70717400  1
  N  N78  1  0.91186500  0.16887900  0.86746200  1
  N  N79  1  0.98569900  0.43281800  0.18527000  1
  N  N80  1  0.29082500  0.63220300  0.20537000  1
  N  N81  1  0.92565800  0.79612200  0.03259800  1
  N  N82  1  0.27830400  0.44429400  0.97903600  1
  N  N83  1  0.30269900  0.91138500  0.77313400  1
  N  N84  1  0.41186500  0.83112100  0.13253800  1
  N  N85  1  0.80269900  0.58861500  0.27313400  1
  N  N86  1  0.80004400  0.44681300  0.66699800  1
  N  N87  1  0.30004400  0.05318700  0.16699800  1
  N  N88  1  0.47876900  0.26628800  0.62447200  1
  N  N89  1  0.42565800  0.20387800  0.96740200  1
  N  N90  1  0.79745400  0.15525200  0.35797300  1
  N  N91  1  0.78973900  0.37808700  0.92677100  1
  N  N92  1  0.48280300  0.28025300  0.20717400  1
  N  N93  1  0.79082500  0.86779700  0.70537000  1
  N  N94  1  0.48569900  0.06718200  0.68527000  1
  N  N95  1  0.79082500  0.36779700  0.79463000  1
  N  N96  1  0.28973900  0.12191300  0.42677100  1
  N  N97  1  0.47876900  0.76628800  0.87552800  1
  N  N98  1  0.30123300  0.98945100  0.03346900  1
  N  N99  1  0.30505300  0.99707600  0.89831200  1
  N  N100  1  0.48987600  0.89242100  0.40505900  1
  N  N101  1  0.97876900  0.23371200  0.12447200  1
  N  N102  1  0.30123300  0.48945100  0.46653100  1
  N  N103  1  0.92565800  0.29612200  0.46740200  1
