# generated using pymatgen
data_Sm3CuSnSe7
_symmetry_space_group_name_H-M   'P 1'
_cell_length_a   10.49406535
_cell_length_b   10.49406535
_cell_length_c   6.37932000
_cell_angle_alpha   90.00000000
_cell_angle_beta   90.00000000
_cell_angle_gamma   119.99999593
_symmetry_Int_Tables_number   1
_chemical_formula_structural   Sm3CuSnSe7
_chemical_formula_sum   'Sm6 Cu2 Sn2 Se14'
_cell_volume   608.40470850
_cell_formula_units_Z   2
loop_
 _symmetry_equiv_pos_site_id
 _symmetry_equiv_pos_as_xyz
  1  'x, y, z'
loop_
 _atom_site_type_symbol
 _atom_site_label
 _atom_site_symmetry_multiplicity
 _atom_site_fract_x
 _atom_site_fract_y
 _atom_site_fract_z
 _atom_site_occupancy
  Sm  Sm0  1  0.21435800  0.35606400  0.94147400  1
  Sm  Sm1  1  0.14170500  0.78564200  0.94147400  1
  Sm  Sm2  1  0.64393600  0.85829500  0.94147400  1
  Sm  Sm3  1  0.78564200  0.64393600  0.44147400  1
  Sm  Sm4  1  0.35606400  0.14170500  0.44147400  1
  Sm  Sm5  1  0.85829500  0.21435800  0.44147400  1
  Cu  Cu6  1  0.00000000  0.00000000  0.00127000  1
  Cu  Cu7  1  0.00000000  0.00000000  0.50127000  1
  Sn  Sn8  1  0.33333300  0.66666700  0.36701400  1
  Sn  Sn9  1  0.66666700  0.33333300  0.86701400  1
  Se  Se10  1  0.73965800  0.89334900  0.48716800  1
  Se  Se11  1  0.43330100  0.91858000  0.18969800  1
  Se  Se12  1  0.91858000  0.48527900  0.68969800  1
  Se  Se13  1  0.51472100  0.43330100  0.68969800  1
  Se  Se14  1  0.89334900  0.15369200  0.98716800  1
  Se  Se15  1  0.56669900  0.08142000  0.68969800  1
  Se  Se16  1  0.10665100  0.84630800  0.48716800  1
  Se  Se17  1  0.33333300  0.66666700  0.76399700  1
  Se  Se18  1  0.26034200  0.10665100  0.98716800  1
  Se  Se19  1  0.48527900  0.56669900  0.18969800  1
  Se  Se20  1  0.08142000  0.51472100  0.18969800  1
  Se  Se21  1  0.66666700  0.33333300  0.26399700  1
  Se  Se22  1  0.15369200  0.26034200  0.48716800  1
  Se  Se23  1  0.84630800  0.73965800  0.98716800  1
