# generated using pymatgen
data_CdI2
_symmetry_space_group_name_H-M   'P 1'
_cell_length_a   4.33578975
_cell_length_b   4.33578975
_cell_length_c   100.78164000
_cell_angle_alpha   90.00000000
_cell_angle_beta   90.00000000
_cell_angle_gamma   119.99999623
_symmetry_Int_Tables_number   1
_chemical_formula_structural   CdI2
_chemical_formula_sum   'Cd13 I26'
_cell_volume   1640.77299206
_cell_formula_units_Z   13
loop_
 _symmetry_equiv_pos_site_id
 _symmetry_equiv_pos_as_xyz
  1  'x, y, z'
loop_
 _atom_site_type_symbol
 _atom_site_label
 _atom_site_symmetry_multiplicity
 _atom_site_fract_x
 _atom_site_fract_y
 _atom_site_fract_z
 _atom_site_occupancy
  Cd  Cd0  1  0.00000000  0.00000000  0.71160500  1
  Cd  Cd1  1  0.00000000  0.00000000  0.48079700  1
  Cd  Cd2  1  0.66666700  0.33333300  0.63455900  1
  Cd  Cd3  1  0.66666700  0.33333300  0.09617600  1
  Cd  Cd4  1  0.00000000  0.00000000  0.55767400  1
  Cd  Cd5  1  0.00000000  0.00000000  0.01912500  1
  Cd  Cd6  1  0.00000000  0.00000000  0.40376500  1
  Cd  Cd7  1  0.00000000  0.00000000  0.32695700  1
  Cd  Cd8  1  0.00000000  0.00000000  0.17324200  1
  Cd  Cd9  1  0.66666700  0.33333300  0.78846700  1
  Cd  Cd10  1  0.66666700  0.33333300  0.86535600  1
  Cd  Cd11  1  0.66666700  0.33333300  0.24992400  1
  Cd  Cd12  1  0.66666700  0.33333300  0.94235400  1
  I  I13  1  0.00000000  0.00000000  0.88241600  1
  I  I14  1  0.33333300  0.66666700  0.61748500  1
  I  I15  1  0.33333300  0.66666700  0.54059000  1
  I  I16  1  0.66666700  0.33333300  0.19030300  1
  I  I17  1  0.33333300  0.66666700  0.23284900  1
  I  I18  1  0.00000000  0.00000000  0.95942600  1
  I  I19  1  0.66666700  0.33333300  0.34403700  1
  I  I20  1  0.33333300  0.66666700  0.84829200  1
  I  I21  1  0.00000000  0.00000000  0.65162700  1
  I  I22  1  0.33333300  0.66666700  0.15618300  1
  I  I23  1  0.33333300  0.66666700  0.77138200  1
  I  I24  1  0.33333300  0.66666700  0.69455900  1
  I  I25  1  0.66666700  0.33333300  0.42084600  1
  I  I26  1  0.33333300  0.66666700  0.00203400  1
  I  I27  1  0.00000000  0.00000000  0.26700000  1
  I  I28  1  0.33333300  0.66666700  0.92527500  1
  I  I29  1  0.66666700  0.33333300  0.57476300  1
  I  I30  1  0.66666700  0.33333300  0.03621100  1
  I  I31  1  0.66666700  0.33333300  0.72866000  1
  I  I32  1  0.33333300  0.66666700  0.07912900  1
  I  I33  1  0.00000000  0.00000000  0.11323700  1
  I  I34  1  0.33333300  0.66666700  0.30987900  1
  I  I35  1  0.33333300  0.66666700  0.46372800  1
  I  I36  1  0.00000000  0.00000000  0.80555200  1
  I  I37  1  0.33333300  0.66666700  0.38667300  1
  I  I38  1  0.66666700  0.33333300  0.49786200  1
