# generated using pymatgen
data_Si3As4
_symmetry_space_group_name_H-M   'P 1'
_cell_length_a   5.36963900
_cell_length_b   5.36963900
_cell_length_c   5.36963900
_cell_angle_alpha   90.00000000
_cell_angle_beta   90.00000000
_cell_angle_gamma   90.00000000
_symmetry_Int_Tables_number   1
_chemical_formula_structural   Si3As4
_chemical_formula_sum   'Si3 As4'
_cell_volume   154.82292474
_cell_formula_units_Z   1
loop_
 _symmetry_equiv_pos_site_id
 _symmetry_equiv_pos_as_xyz
  1  'x, y, z'
loop_
 _atom_site_type_symbol
 _atom_site_label
 _atom_site_symmetry_multiplicity
 _atom_site_fract_x
 _atom_site_fract_y
 _atom_site_fract_z
 _atom_site_occupancy
  Si  Si0  1  0.00000000  0.00000000  0.50000000  1
  Si  Si1  1  0.50000000  0.00000000  0.00000000  1
  Si  Si2  1  0.00000000  0.50000000  0.00000000  1
  As  As3  1  0.72130000  0.27870000  0.27870000  1
  As  As4  1  0.27870000  0.72130000  0.27870000  1
  As  As5  1  0.27870000  0.27870000  0.72130000  1
  As  As6  1  0.72130000  0.72130000  0.72130000  1
