# generated using pymatgen
data_Ce8Ni18P11
_symmetry_space_group_name_H-M   'P 1'
_cell_length_a   18.15954300
_cell_length_b   18.15954363
_cell_length_c   3.87529900
_cell_angle_alpha   90.00000000
_cell_angle_beta   90.00000000
_cell_angle_gamma   120.00000067
_symmetry_Int_Tables_number   1
_chemical_formula_structural   Ce8Ni18P11
_chemical_formula_sum   'Ce16 Ni36 P22'
_cell_volume   1106.74021265
_cell_formula_units_Z   2
loop_
 _symmetry_equiv_pos_site_id
 _symmetry_equiv_pos_as_xyz
  1  'x, y, z'
loop_
 _atom_site_type_symbol
 _atom_site_label
 _atom_site_symmetry_multiplicity
 _atom_site_fract_x
 _atom_site_fract_y
 _atom_site_fract_z
 _atom_site_occupancy
  Ce  Ce0  1  0.38071800  0.19035900  0.00000000  1
  Ce  Ce1  1  0.11090400  0.22180900  0.50000000  1
  Ce  Ce2  1  0.55084200  0.66569800  0.50000000  1
  Ce  Ce3  1  0.33430200  0.44915800  0.50000000  1
  Ce  Ce4  1  0.77819100  0.88909600  0.50000000  1
  Ce  Ce5  1  0.33430200  0.88514400  0.50000000  1
  Ce  Ce6  1  0.11485600  0.66569800  0.50000000  1
  Ce  Ce7  1  0.80964100  0.61928200  0.00000000  1
  Ce  Ce8  1  0.59344300  0.18688600  0.00000000  1
  Ce  Ce9  1  0.11090400  0.88909600  0.50000000  1
  Ce  Ce10  1  0.80964100  0.19035900  0.00000000  1
  Ce  Ce11  1  0.81311400  0.40655700  0.00000000  1
  Ce  Ce12  1  0.11485600  0.44915800  0.50000000  1
  Ce  Ce13  1  0.59344300  0.40655700  0.00000000  1
  Ce  Ce14  1  0.33333300  0.66666700  0.50000000  1
  Ce  Ce15  1  0.55084200  0.88514400  0.50000000  1
  Ni  Ni16  1  0.62357800  0.81178900  0.00000000  1
  Ni  Ni17  1  0.73421800  0.69748400  0.50000000  1
  Ni  Ni18  1  0.41028500  0.37401400  0.00000000  1
  Ni  Ni19  1  0.96326500  0.26578200  0.50000000  1
  Ni  Ni20  1  0.04455200  0.95544800  0.00000000  1
  Ni  Ni21  1  0.73928600  0.26071400  0.50000000  1
  Ni  Ni22  1  0.73928600  0.47857100  0.50000000  1
  Ni  Ni23  1  0.96372900  0.37401400  0.00000000  1
  Ni  Ni24  1  0.51791500  0.48208500  0.50000000  1
  Ni  Ni25  1  0.96497900  0.79764500  0.00000000  1
  Ni  Ni26  1  0.51791500  0.03582900  0.50000000  1
  Ni  Ni27  1  0.94908600  0.05091400  0.50000000  1
  Ni  Ni28  1  0.30251600  0.26578200  0.50000000  1
  Ni  Ni29  1  0.18821100  0.37642200  0.00000000  1
  Ni  Ni30  1  0.18752400  0.59376200  0.00000000  1
  Ni  Ni31  1  0.83266600  0.03502100  0.00000000  1
  Ni  Ni32  1  0.94908600  0.89817200  0.50000000  1
  Ni  Ni33  1  0.73421800  0.03673500  0.50000000  1
  Ni  Ni34  1  0.10182800  0.05091400  0.50000000  1
  Ni  Ni35  1  0.20235500  0.03502100  0.00000000  1
  Ni  Ni36  1  0.62598600  0.03627100  0.00000000  1
  Ni  Ni37  1  0.96326500  0.69748400  0.50000000  1
  Ni  Ni38  1  0.18821100  0.81178900  0.00000000  1
  Ni  Ni39  1  0.52142900  0.26071400  0.50000000  1
  Ni  Ni40  1  0.91089600  0.95544800  0.00000000  1
  Ni  Ni41  1  0.40623800  0.59376200  0.00000000  1
  Ni  Ni42  1  0.20235500  0.16733400  0.00000000  1
  Ni  Ni43  1  0.04455200  0.08910400  0.00000000  1
  Ni  Ni44  1  0.96417100  0.48208500  0.50000000  1
  Ni  Ni45  1  0.96497900  0.16733400  0.00000000  1
  Ni  Ni46  1  0.40623800  0.81247600  0.00000000  1
  Ni  Ni47  1  0.83266600  0.79764500  0.00000000  1
  Ni  Ni48  1  0.96372900  0.58971500  0.00000000  1
  Ni  Ni49  1  0.30251600  0.03673500  0.50000000  1
  Ni  Ni50  1  0.41028500  0.03627100  0.00000000  1
  Ni  Ni51  1  0.62598600  0.58971500  0.00000000  1
  P  P52  1  0.26263900  0.30769900  0.00000000  1
  P  P53  1  0.45029500  0.33475600  0.50000000  1
  P  P54  1  0.88010500  0.11989500  0.50000000  1
  P  P55  1  0.23979000  0.11989500  0.50000000  1
  P  P56  1  0.47852000  0.95703900  0.00000000  1
  P  P57  1  0.69230100  0.73736100  0.00000000  1
  P  P58  1  0.47813700  0.73906800  0.00000000  1
  P  P59  1  0.04505900  0.30769900  0.00000000  1
  P  P60  1  0.04296100  0.52148000  0.00000000  1
  P  P61  1  0.26093200  0.52186300  0.00000000  1
  P  P62  1  0.66666700  0.33333300  0.50000000  1
  P  P63  1  0.26093200  0.73906800  0.00000000  1
  P  P64  1  0.26263900  0.95494100  0.00000000  1
  P  P65  1  0.45029500  0.11553900  0.50000000  1
  P  P66  1  0.88446100  0.54970500  0.50000000  1
  P  P67  1  0.66524400  0.11553900  0.50000000  1
  P  P68  1  0.04505900  0.73736100  0.00000000  1
  P  P69  1  0.66524400  0.54970500  0.50000000  1
  P  P70  1  0.88446100  0.33475600  0.50000000  1
  P  P71  1  0.47852000  0.52148000  0.00000000  1
  P  P72  1  0.88010500  0.76021000  0.50000000  1
  P  P73  1  0.69230100  0.95494100  0.00000000  1
