# generated using pymatgen
data_Cd2GeAs4
_symmetry_space_group_name_H-M   'P 1'
_cell_length_a   7.37476900
_cell_length_b   7.55532500
_cell_length_c   12.93373300
_cell_angle_alpha   90.00000000
_cell_angle_beta   90.00000000
_cell_angle_gamma   90.00000000
_symmetry_Int_Tables_number   1
_chemical_formula_structural   Cd2GeAs4
_chemical_formula_sum   'Cd8 Ge4 As16'
_cell_volume   720.65177957
_cell_formula_units_Z   4
loop_
 _symmetry_equiv_pos_site_id
 _symmetry_equiv_pos_as_xyz
  1  'x, y, z'
loop_
 _atom_site_type_symbol
 _atom_site_label
 _atom_site_symmetry_multiplicity
 _atom_site_fract_x
 _atom_site_fract_y
 _atom_site_fract_z
 _atom_site_occupancy
  Cd  Cd0  1  0.59417100  0.97628900  0.86957600  1
  Cd  Cd1  1  0.09417100  0.52371100  0.63042400  1
  Cd  Cd2  1  0.40582900  0.47628900  0.13042400  1
  Cd  Cd3  1  0.90582900  0.02371100  0.36957600  1
  Cd  Cd4  1  0.09417100  0.97628900  0.63042400  1
  Cd  Cd5  1  0.59417100  0.52371100  0.86957600  1
  Cd  Cd6  1  0.90582900  0.47628900  0.36957600  1
  Cd  Cd7  1  0.40582900  0.02371100  0.13042400  1
  Ge  Ge8  1  0.91807000  0.75000000  0.08110000  1
  Ge  Ge9  1  0.41807000  0.75000000  0.41890000  1
  Ge  Ge10  1  0.08193000  0.25000000  0.91890000  1
  Ge  Ge11  1  0.58193000  0.25000000  0.58110000  1
  As  As12  1  0.40841300  0.25000000  0.96143300  1
  As  As13  1  0.45603600  0.51202100  0.67458600  1
  As  As14  1  0.04396400  0.48797900  0.17458600  1
  As  As15  1  0.54396400  0.01202100  0.32541400  1
  As  As16  1  0.90841300  0.25000000  0.53856700  1
  As  As17  1  0.61232400  0.75000000  0.57754800  1
  As  As18  1  0.09158700  0.75000000  0.46143300  1
  As  As19  1  0.59158700  0.75000000  0.03856700  1
  As  As20  1  0.38767600  0.25000000  0.42245200  1
  As  As21  1  0.88767600  0.25000000  0.07754800  1
  As  As22  1  0.04396400  0.01202100  0.17458600  1
  As  As23  1  0.11232400  0.75000000  0.92245200  1
  As  As24  1  0.45603600  0.98797900  0.67458600  1
  As  As25  1  0.54396400  0.48797900  0.32541400  1
  As  As26  1  0.95603600  0.51202100  0.82541400  1
  As  As27  1  0.95603600  0.98797900  0.82541400  1
