# generated using pymatgen
data_Tl3BiI6
_symmetry_space_group_name_H-M   'P 1'
_cell_length_a   9.27899000
_cell_length_b   13.96208500
_cell_length_c   14.01648142
_cell_angle_alpha   75.66239812
_cell_angle_beta   90.00000000
_cell_angle_gamma   90.00000000
_symmetry_Int_Tables_number   1
_chemical_formula_structural   Tl3BiI6
_chemical_formula_sum   'Tl12 Bi4 I24'
_cell_volume   1759.33307700
_cell_formula_units_Z   4
loop_
 _symmetry_equiv_pos_site_id
 _symmetry_equiv_pos_as_xyz
  1  'x, y, z'
loop_
 _atom_site_type_symbol
 _atom_site_label
 _atom_site_symmetry_multiplicity
 _atom_site_fract_x
 _atom_site_fract_y
 _atom_site_fract_z
 _atom_site_occupancy
  Tl  Tl0  1  0.15931500  0.69173200  0.04672700  1
  Tl  Tl1  1  0.12315000  0.86914300  0.35016300  1
  Tl  Tl2  1  0.84068500  0.30826800  0.95327300  1
  Tl  Tl3  1  0.85858800  0.51491200  0.20586300  1
  Tl  Tl4  1  0.35858800  0.98508800  0.79413700  1
  Tl  Tl5  1  0.65931500  0.80826800  0.95327300  1
  Tl  Tl6  1  0.62315000  0.63085700  0.64983700  1
  Tl  Tl7  1  0.64141200  0.01491200  0.20586300  1
  Tl  Tl8  1  0.37685000  0.36914300  0.35016300  1
  Tl  Tl9  1  0.34068500  0.19173200  0.04672700  1
  Tl  Tl10  1  0.87685000  0.13085700  0.64983700  1
  Tl  Tl11  1  0.14141200  0.48508800  0.79413700  1
  Bi  Bi12  1  0.99636100  0.20146000  0.26665400  1
  Bi  Bi13  1  0.49636100  0.29854000  0.73334600  1
  Bi  Bi14  1  0.00363900  0.79854000  0.73334600  1
  Bi  Bi15  1  0.50363900  0.70146000  0.26665400  1
  I  I16  1  0.85771600  0.61959700  0.89200500  1
  I  I17  1  0.83599000  0.03131400  0.40280300  1
  I  I18  1  0.48585000  0.81826400  0.42508100  1
  I  I19  1  0.19273000  0.20727500  0.81212500  1
  I  I20  1  0.16401000  0.96868600  0.59719700  1
  I  I21  1  0.01415000  0.31826400  0.42508100  1
  I  I22  1  0.80727000  0.79272500  0.18787500  1
  I  I23  1  0.64228400  0.11959700  0.89200500  1
  I  I24  1  0.98842400  0.08561900  0.10239600  1
  I  I25  1  0.30727000  0.70727500  0.81212500  1
  I  I26  1  0.33599000  0.46868600  0.59719700  1
  I  I27  1  0.51157600  0.58561900  0.10239600  1
  I  I28  1  0.80152700  0.38376700  0.68377700  1
  I  I29  1  0.35771600  0.88040300  0.10799500  1
  I  I30  1  0.14228400  0.38040300  0.10799500  1
  I  I31  1  0.51415000  0.18173600  0.57491900  1
  I  I32  1  0.48842400  0.41438100  0.89760400  1
  I  I33  1  0.66401000  0.53131400  0.40280300  1
  I  I34  1  0.98585000  0.68173600  0.57491900  1
  I  I35  1  0.01157600  0.91438100  0.89760400  1
  I  I36  1  0.69847300  0.88376700  0.68377700  1
  I  I37  1  0.19847300  0.61623300  0.31622300  1
  I  I38  1  0.30152700  0.11623300  0.31622300  1
  I  I39  1  0.69273000  0.29272500  0.18787500  1
