# generated using pymatgen
data_YGaI
_symmetry_space_group_name_H-M   'P 1'
_cell_length_a   4.20897228
_cell_length_b   4.20897228
_cell_length_c   12.24278500
_cell_angle_alpha   90.00000000
_cell_angle_beta   90.00000000
_cell_angle_gamma   120.00000441
_symmetry_Int_Tables_number   1
_chemical_formula_structural   YGaI
_chemical_formula_sum   'Y2 Ga2 I2'
_cell_volume   187.82913840
_cell_formula_units_Z   2
loop_
 _symmetry_equiv_pos_site_id
 _symmetry_equiv_pos_as_xyz
  1  'x, y, z'
loop_
 _atom_site_type_symbol
 _atom_site_label
 _atom_site_symmetry_multiplicity
 _atom_site_fract_x
 _atom_site_fract_y
 _atom_site_fract_z
 _atom_site_occupancy
  Y  Y0  1  0.00000000  0.00000000  0.83482400  1
  Y  Y1  1  0.00000000  0.00000000  0.16517600  1
  Ga  Ga2  1  0.33333300  0.66666700  0.97172300  1
  Ga  Ga3  1  0.66666700  0.33333300  0.02827700  1
  I  I4  1  0.66666700  0.33333300  0.67090200  1
  I  I5  1  0.33333300  0.66666700  0.32909800  1
