# generated using pymatgen
data_SiC
_symmetry_space_group_name_H-M   'P 1'
_cell_length_a   3.09416346
_cell_length_b   3.09416346
_cell_length_c   98.70974100
_cell_angle_alpha   90.00000000
_cell_angle_beta   90.00000000
_cell_angle_gamma   119.99998838
_symmetry_Int_Tables_number   1
_chemical_formula_structural   SiC
_chemical_formula_sum   'Si39 C39'
_cell_volume   818.42182103
_cell_formula_units_Z   39
loop_
 _symmetry_equiv_pos_site_id
 _symmetry_equiv_pos_as_xyz
  1  'x, y, z'
loop_
 _atom_site_type_symbol
 _atom_site_label
 _atom_site_symmetry_multiplicity
 _atom_site_fract_x
 _atom_site_fract_y
 _atom_site_fract_z
 _atom_site_occupancy
  Si  Si0  1  0.33333300  0.66666700  0.17949300  1
  Si  Si1  1  0.00000000  0.00000000  0.79484400  1
  Si  Si2  1  0.33333300  0.66666700  0.61538700  1
  Si  Si3  1  0.66666700  0.33333300  0.46154100  1
  Si  Si4  1  0.33333300  0.66666700  0.97435100  1
  Si  Si5  1  0.33333300  0.66666700  0.76922700  1
  Si  Si6  1  0.00000000  0.00000000  0.53846500  1
  Si  Si7  1  0.33333300  0.66666700  0.56409100  1
  Si  Si8  1  0.33333300  0.66666700  0.92306900  1
  Si  Si9  1  0.00000000  0.00000000  0.15384100  1
  Si  Si10  1  0.66666700  0.33333300  0.05125900  1
  Si  Si11  1  0.00000000  0.00000000  0.89744300  1
  Si  Si12  1  0.66666700  0.33333300  0.41024700  1
  Si  Si13  1  0.33333300  0.66666700  0.33333200  1
  Si  Si14  1  0.33333300  0.66666700  0.43588500  1
  Si  Si15  1  0.00000000  0.00000000  0.84613600  1
  Si  Si16  1  0.33333300  0.66666700  0.51279600  1
  Si  Si17  1  0.66666700  0.33333300  0.82050300  1
  Si  Si18  1  0.00000000  0.00000000  0.48715500  1
  Si  Si19  1  0.66666700  0.33333300  0.58973200  1
  Si  Si20  1  0.00000000  0.00000000  0.69231300  1
  Si  Si21  1  0.66666700  0.33333300  0.25640800  1
  Si  Si22  1  0.66666700  0.33333300  0.74358100  1
  Si  Si23  1  0.66666700  0.33333300  0.20510600  1
  Si  Si24  1  0.33333300  0.66666700  0.71793000  1
  Si  Si25  1  0.33333300  0.66666700  0.02564300  1
  Si  Si26  1  0.00000000  0.00000000  0.23076300  1
  Si  Si27  1  0.00000000  0.00000000  0.64100600  1
  Si  Si28  1  0.33333300  0.66666700  0.12818300  1
  Si  Si29  1  0.33333300  0.66666700  0.87176900  1
  Si  Si30  1  0.00000000  0.00000000  0.07691000  1
  Si  Si31  1  0.66666700  0.33333300  0.35894800  1
  Si  Si32  1  0.00000000  0.00000000  0.30768000  1
  Si  Si33  1  0.66666700  0.33333300  0.10256000  1
  Si  Si34  1  0.00000000  0.00000000  0.99999100  1
  Si  Si35  1  0.66666700  0.33333300  0.66666100  1
  Si  Si36  1  0.66666700  0.33333300  0.94871200  1
  Si  Si37  1  0.00000000  0.00000000  0.38461200  1
  Si  Si38  1  0.33333300  0.66666700  0.28201800  1
  C  C39  1  0.00000000  0.00000000  0.40389700  1
  C  C40  1  0.00000000  0.00000000  0.66023600  1
  C  C41  1  0.00000000  0.00000000  0.32696100  1
  C  C42  1  0.66666700  0.33333300  0.42946100  1
  C  C43  1  0.66666700  0.33333300  0.60902300  1
  C  C44  1  0.33333300  0.66666700  0.19872400  1
  C  C45  1  0.00000000  0.00000000  0.91671300  1
  C  C46  1  0.00000000  0.00000000  0.86535100  1
  C  C47  1  0.00000000  0.00000000  0.01927400  1
  C  C48  1  0.33333300  0.66666700  0.45518200  1
  C  C49  1  0.33333300  0.66666700  0.73716300  1
  C  C50  1  0.33333300  0.66666700  0.78847200  1
  C  C51  1  0.33333300  0.66666700  0.14741700  1
  C  C52  1  0.33333300  0.66666700  0.04486900  1
  C  C53  1  0.66666700  0.33333300  0.83978600  1
  C  C54  1  0.66666700  0.33333300  0.12180200  1
  C  C55  1  0.33333300  0.66666700  0.35256700  1
  C  C56  1  0.66666700  0.33333300  0.76286500  1
  C  C57  1  0.66666700  0.33333300  0.27564300  1
  C  C58  1  0.66666700  0.33333300  0.96799500  1
  C  C59  1  0.00000000  0.00000000  0.81407900  1
  C  C60  1  0.00000000  0.00000000  0.71154000  1
  C  C61  1  0.00000000  0.00000000  0.55773300  1
  C  C62  1  0.33333300  0.66666700  0.94228400  1
  C  C63  1  0.66666700  0.33333300  0.37818500  1
  C  C64  1  0.00000000  0.00000000  0.50638900  1
  C  C65  1  0.33333300  0.66666700  0.89104300  1
  C  C66  1  0.33333300  0.66666700  0.30125900  1
  C  C67  1  0.66666700  0.33333300  0.22433900  1
  C  C68  1  0.66666700  0.33333300  0.68594400  1
  C  C69  1  0.00000000  0.00000000  0.17312800  1
  C  C70  1  0.33333300  0.66666700  0.99356100  1
  C  C71  1  0.66666700  0.33333300  0.48077600  1
  C  C72  1  0.33333300  0.66666700  0.53206300  1
  C  C73  1  0.33333300  0.66666700  0.58330400  1
  C  C74  1  0.66666700  0.33333300  0.07049300  1
  C  C75  1  0.00000000  0.00000000  0.09619500  1
  C  C76  1  0.33333300  0.66666700  0.63462200  1
  C  C77  1  0.00000000  0.00000000  0.25004700  1
