# generated using pymatgen
data_K2CoCl4
_symmetry_space_group_name_H-M   'P 1'
_cell_length_a   9.70752400
_cell_length_b   6.88270100
_cell_length_c   12.86283170
_cell_angle_alpha   72.99218404
_cell_angle_beta   90.00000000
_cell_angle_gamma   90.00000000
_symmetry_Int_Tables_number   1
_chemical_formula_structural   K2CoCl4
_chemical_formula_sum   'K8 Co4 Cl16'
_cell_volume   821.83032428
_cell_formula_units_Z   4
loop_
 _symmetry_equiv_pos_site_id
 _symmetry_equiv_pos_as_xyz
  1  'x, y, z'
loop_
 _atom_site_type_symbol
 _atom_site_label
 _atom_site_symmetry_multiplicity
 _atom_site_fract_x
 _atom_site_fract_y
 _atom_site_fract_z
 _atom_site_occupancy
  K  K0  1  0.35476600  0.77636500  0.99298900  1
  K  K1  1  0.64523400  0.22363500  0.00701100  1
  K  K2  1  0.40442000  0.40395500  0.33487600  1
  K  K3  1  0.90442000  0.59604500  0.16512400  1
  K  K4  1  0.85476600  0.22363500  0.50701100  1
  K  K5  1  0.09558000  0.40395500  0.83487600  1
  K  K6  1  0.59558000  0.59604500  0.66512400  1
  K  K7  1  0.14523400  0.77636500  0.49298900  1
  Co  Co8  1  0.14661200  0.11792000  0.18010900  1
  Co  Co9  1  0.85338800  0.88208000  0.81989100  1
  Co  Co10  1  0.35338800  0.11792000  0.68010900  1
  Co  Co11  1  0.64661200  0.88208000  0.31989100  1
  Cl  Cl12  1  0.03671900  0.79381200  0.93108500  1
  Cl  Cl13  1  0.96328100  0.20618800  0.06891500  1
  Cl  Cl14  1  0.10124100  0.21216900  0.33223600  1
  Cl  Cl15  1  0.31248500  0.78073900  0.72017900  1
  Cl  Cl16  1  0.18751500  0.78073900  0.22017900  1
  Cl  Cl17  1  0.83488600  0.70079800  0.39860200  1
  Cl  Cl18  1  0.33488600  0.29920200  0.10139800  1
  Cl  Cl19  1  0.81248500  0.21926100  0.77982100  1
  Cl  Cl20  1  0.89875900  0.78783100  0.66776400  1
  Cl  Cl21  1  0.16511400  0.29920200  0.60139800  1
  Cl  Cl22  1  0.66511400  0.70079800  0.89860200  1
  Cl  Cl23  1  0.68751500  0.21926100  0.27982100  1
  Cl  Cl24  1  0.39875900  0.21216900  0.83223600  1
  Cl  Cl25  1  0.53671900  0.20618800  0.56891500  1
  Cl  Cl26  1  0.60124100  0.78783100  0.16776400  1
  Cl  Cl27  1  0.46328100  0.79381200  0.43108500  1
