# generated using pymatgen
data_KNa(BH4)2
_symmetry_space_group_name_H-M   'P 1'
_cell_length_a   4.70349015
_cell_length_b   4.70349015
_cell_length_c   7.29443100
_cell_angle_alpha   90.00000000
_cell_angle_beta   90.00000000
_cell_angle_gamma   120.00000211
_symmetry_Int_Tables_number   1
_chemical_formula_structural   KNa(BH4)2
_chemical_formula_sum   'K1 Na1 B2 H8'
_cell_volume   139.75344451
_cell_formula_units_Z   1
loop_
 _symmetry_equiv_pos_site_id
 _symmetry_equiv_pos_as_xyz
  1  'x, y, z'
loop_
 _atom_site_type_symbol
 _atom_site_label
 _atom_site_symmetry_multiplicity
 _atom_site_fract_x
 _atom_site_fract_y
 _atom_site_fract_z
 _atom_site_occupancy
  K  K0  1  0.00000000  0.00000000  0.15857700  1
  Na  Na1  1  0.33333300  0.66666700  0.68949300  1
  B  B2  1  0.33333300  0.66666700  0.33960500  1
  B  B3  1  0.66666700  0.33333300  0.84918600  1
  H  H4  1  0.33333300  0.66666700  0.17116500  1
  H  H5  1  0.66666700  0.33333300  0.01706100  1
  H  H6  1  0.80909100  0.61818100  0.79184600  1
  H  H7  1  0.47590000  0.95180000  0.39444500  1
  H  H8  1  0.80909100  0.19090900  0.79184600  1
  H  H9  1  0.38181900  0.19090900  0.79184600  1
  H  H10  1  0.04820000  0.52410000  0.39444500  1
  H  H11  1  0.47590000  0.52410000  0.39444500  1
