# generated using pymatgen
data_PbIBr
_symmetry_space_group_name_H-M   'P 1'
_cell_length_a   4.51838900
_cell_length_b   8.95723100
_cell_length_c   10.87950200
_cell_angle_alpha   90.00000000
_cell_angle_beta   90.00000000
_cell_angle_gamma   90.00000000
_symmetry_Int_Tables_number   1
_chemical_formula_structural   PbIBr
_chemical_formula_sum   'Pb4 I4 Br4'
_cell_volume   440.31796856
_cell_formula_units_Z   4
loop_
 _symmetry_equiv_pos_site_id
 _symmetry_equiv_pos_as_xyz
  1  'x, y, z'
loop_
 _atom_site_type_symbol
 _atom_site_label
 _atom_site_symmetry_multiplicity
 _atom_site_fract_x
 _atom_site_fract_y
 _atom_site_fract_z
 _atom_site_occupancy
  Pb  Pb0  1  0.75000000  0.64913700  0.34586800  1
  Pb  Pb1  1  0.25000000  0.35086300  0.65413200  1
  Pb  Pb2  1  0.25000000  0.85086300  0.84586800  1
  Pb  Pb3  1  0.75000000  0.14913700  0.15413200  1
  I  I4  1  0.25000000  0.49857600  0.17616200  1
  I  I5  1  0.75000000  0.00142400  0.67616200  1
  I  I6  1  0.75000000  0.50142400  0.82383800  1
  I  I7  1  0.25000000  0.99857600  0.32383800  1
  Br  Br8  1  0.75000000  0.84312700  0.04950500  1
  Br  Br9  1  0.25000000  0.15687300  0.95049500  1
  Br  Br10  1  0.75000000  0.34312700  0.45049500  1
  Br  Br11  1  0.25000000  0.65687300  0.54950500  1
