# generated using pymatgen
data_Ho3CuSiSe7
_symmetry_space_group_name_H-M   'P 1'
_cell_length_a   10.30603464
_cell_length_b   10.30603464
_cell_length_c   6.03340900
_cell_angle_alpha   90.00000000
_cell_angle_beta   90.00000000
_cell_angle_gamma   120.00000413
_symmetry_Int_Tables_number   1
_chemical_formula_structural   Ho3CuSiSe7
_chemical_formula_sum   'Ho6 Cu2 Si2 Se14'
_cell_volume   554.97903373
_cell_formula_units_Z   2
loop_
 _symmetry_equiv_pos_site_id
 _symmetry_equiv_pos_as_xyz
  1  'x, y, z'
loop_
 _atom_site_type_symbol
 _atom_site_label
 _atom_site_symmetry_multiplicity
 _atom_site_fract_x
 _atom_site_fract_y
 _atom_site_fract_z
 _atom_site_occupancy
  Ho  Ho0  1  0.77789200  0.13407400  0.22971700  1
  Ho  Ho1  1  0.64381700  0.77789200  0.72971700  1
  Ho  Ho2  1  0.13407400  0.35618300  0.72971700  1
  Ho  Ho3  1  0.86592600  0.64381700  0.22971700  1
  Ho  Ho4  1  0.35618300  0.22210800  0.22971700  1
  Ho  Ho5  1  0.22210800  0.86592600  0.72971700  1
  Cu  Cu6  1  0.00000000  0.00000000  0.17787700  1
  Cu  Cu7  1  0.00000000  0.00000000  0.67787700  1
  Si  Si8  1  0.66666700  0.33333300  0.81997800  1
  Si  Si9  1  0.33333300  0.66666700  0.31997800  1
  Se  Se10  1  0.42206200  0.52136700  0.47469100  1
  Se  Se11  1  0.47863300  0.90069400  0.47469100  1
  Se  Se12  1  0.09930600  0.57793800  0.47469100  1
  Se  Se13  1  0.89904500  0.73759000  0.69478600  1
  Se  Se14  1  0.66666700  0.33333300  0.44236500  1
  Se  Se15  1  0.90069400  0.42206200  0.97469100  1
  Se  Se16  1  0.83854500  0.10095500  0.69478600  1
  Se  Se17  1  0.57793800  0.47863300  0.97469100  1
  Se  Se18  1  0.10095500  0.26241000  0.19478600  1
  Se  Se19  1  0.52136700  0.09930600  0.97469100  1
  Se  Se20  1  0.26241000  0.16145500  0.69478600  1
  Se  Se21  1  0.33333300  0.66666700  0.94236500  1
  Se  Se22  1  0.16145500  0.89904500  0.19478600  1
  Se  Se23  1  0.73759000  0.83854500  0.19478600  1
