# generated using pymatgen
data_ZnCl2
_symmetry_space_group_name_H-M   'P 1'
_cell_length_a   11.78673200
_cell_length_b   6.78790800
_cell_length_c   14.04579851
_cell_angle_alpha   63.52895212
_cell_angle_beta   90.00000000
_cell_angle_gamma   90.00000000
_symmetry_Int_Tables_number   1
_chemical_formula_structural   ZnCl2
_chemical_formula_sum   'Zn12 Cl24'
_cell_volume   1005.94982658
_cell_formula_units_Z   12
loop_
 _symmetry_equiv_pos_site_id
 _symmetry_equiv_pos_as_xyz
  1  'x, y, z'
loop_
 _atom_site_type_symbol
 _atom_site_label
 _atom_site_symmetry_multiplicity
 _atom_site_fract_x
 _atom_site_fract_y
 _atom_site_fract_z
 _atom_site_occupancy
  Zn  Zn0  1  0.83929700  0.14617300  0.68296800  1
  Zn  Zn1  1  0.18432900  0.75613700  0.07577700  1
  Zn  Zn2  1  0.33929700  0.85382700  0.81703200  1
  Zn  Zn3  1  0.16070300  0.85382700  0.31703200  1
  Zn  Zn4  1  0.31567100  0.75613700  0.57577700  1
  Zn  Zn5  1  0.81567100  0.24386300  0.92422300  1
  Zn  Zn6  1  0.49539600  0.36695900  0.80633800  1
  Zn  Zn7  1  0.68432900  0.24386300  0.42422300  1
  Zn  Zn8  1  0.66070300  0.14617300  0.18296800  1
  Zn  Zn9  1  0.50460400  0.63304100  0.19366200  1
  Zn  Zn10  1  0.99539600  0.63304100  0.69366200  1
  Zn  Zn11  1  0.00460400  0.36695900  0.30633800  1
  Cl  Cl12  1  0.17680300  0.02217300  0.13447100  1
  Cl  Cl13  1  0.98122300  0.44844000  0.87544400  1
  Cl  Cl14  1  0.17972300  0.92373700  0.89192300  1
  Cl  Cl15  1  0.34110000  0.53211800  0.13515500  1
  Cl  Cl16  1  0.32027700  0.92373700  0.39192300  1
  Cl  Cl17  1  0.82319700  0.97782700  0.86552900  1
  Cl  Cl18  1  0.00376600  0.99193400  0.36501700  1
  Cl  Cl19  1  0.15265100  0.47758700  0.37856400  1
  Cl  Cl20  1  0.32319700  0.02217300  0.63447100  1
  Cl  Cl21  1  0.15890000  0.53211800  0.63515500  1
  Cl  Cl22  1  0.82027700  0.07626300  0.10807700  1
  Cl  Cl23  1  0.49623400  0.99193400  0.86501700  1
  Cl  Cl24  1  0.65265100  0.52241300  0.12143600  1
  Cl  Cl25  1  0.01877700  0.55156000  0.12455600  1
  Cl  Cl26  1  0.34734900  0.47758700  0.87856400  1
  Cl  Cl27  1  0.67972300  0.07626300  0.60807700  1
  Cl  Cl28  1  0.48122300  0.55156000  0.62455600  1
  Cl  Cl29  1  0.51877700  0.44844000  0.37544400  1
  Cl  Cl30  1  0.65890000  0.46788200  0.86484500  1
  Cl  Cl31  1  0.99623400  0.00806600  0.63498300  1
  Cl  Cl32  1  0.84110000  0.46788200  0.36484500  1
  Cl  Cl33  1  0.84734900  0.52241300  0.62143600  1
  Cl  Cl34  1  0.67680300  0.97782700  0.36552900  1
  Cl  Cl35  1  0.50376600  0.00806600  0.13498300  1
