# generated using pymatgen
data_NbRh
_symmetry_space_group_name_H-M   'P 1'
_cell_length_a   2.84001700
_cell_length_b   4.60096000
_cell_length_c   4.93912300
_cell_angle_alpha   90.00000000
_cell_angle_beta   90.00000000
_cell_angle_gamma   90.00000000
_symmetry_Int_Tables_number   1
_chemical_formula_structural   NbRh
_chemical_formula_sum   'Nb2 Rh2'
_cell_volume   64.53855522
_cell_formula_units_Z   2
loop_
 _symmetry_equiv_pos_site_id
 _symmetry_equiv_pos_as_xyz
  1  'x, y, z'
loop_
 _atom_site_type_symbol
 _atom_site_label
 _atom_site_symmetry_multiplicity
 _atom_site_fract_x
 _atom_site_fract_y
 _atom_site_fract_z
 _atom_site_occupancy
  Nb  Nb0  1  0.00000000  0.75000000  0.19506400  1
  Nb  Nb1  1  0.00000000  0.25000000  0.80493600  1
  Rh  Rh2  1  0.50000000  0.75000000  0.68681000  1
  Rh  Rh3  1  0.50000000  0.25000000  0.31319000  1
