# generated using pymatgen
data_Ba3Na2(CN2)4
_symmetry_space_group_name_H-M   'P 1'
_cell_length_a   10.13680500
_cell_length_b   6.41935600
_cell_length_c   17.96158507
_cell_angle_alpha   69.52514357
_cell_angle_beta   90.00000000
_cell_angle_gamma   90.00000000
_symmetry_Int_Tables_number   1
_chemical_formula_structural   Ba3Na2(CN2)4
_chemical_formula_sum   'Ba12 Na8 C16 N32'
_cell_volume   1094.95443658
_cell_formula_units_Z   4
loop_
 _symmetry_equiv_pos_site_id
 _symmetry_equiv_pos_as_xyz
  1  'x, y, z'
loop_
 _atom_site_type_symbol
 _atom_site_label
 _atom_site_symmetry_multiplicity
 _atom_site_fract_x
 _atom_site_fract_y
 _atom_site_fract_z
 _atom_site_occupancy
  Ba  Ba0  1  0.68022000  0.58595700  0.65364200  1
  Ba  Ba1  1  0.87364800  0.89351100  0.85720000  1
  Ba  Ba2  1  0.69068600  0.23209000  0.00659300  1
  Ba  Ba3  1  0.31978000  0.41404300  0.34635800  1
  Ba  Ba4  1  0.80931400  0.23209000  0.50659300  1
  Ba  Ba5  1  0.37364800  0.10648900  0.64280000  1
  Ba  Ba6  1  0.30931400  0.76791000  0.99340700  1
  Ba  Ba7  1  0.19068600  0.76791000  0.49340700  1
  Ba  Ba8  1  0.12635200  0.10648900  0.14280000  1
  Ba  Ba9  1  0.18022000  0.41404300  0.84635800  1
  Ba  Ba10  1  0.81978000  0.58595700  0.15364200  1
  Ba  Ba11  1  0.62635200  0.89351100  0.35720000  1
  Na  Na12  1  0.52150000  0.61265500  0.83119500  1
  Na  Na13  1  0.02150000  0.38734500  0.66880500  1
  Na  Na14  1  0.47674800  0.89005300  0.17002000  1
  Na  Na15  1  0.02325200  0.89005300  0.67002000  1
  Na  Na16  1  0.97850000  0.61265500  0.33119500  1
  Na  Na17  1  0.52325200  0.10994700  0.82998000  1
  Na  Na18  1  0.97674800  0.10994700  0.32998000  1
  Na  Na19  1  0.47850000  0.38734500  0.16880500  1
  C  C20  1  0.67333100  0.43964400  0.30917400  1
  C  C21  1  0.17333100  0.56035600  0.19082600  1
  C  C22  1  0.50000000  0.00000000  0.50000000  1
  C  C23  1  0.32666900  0.56035600  0.69082600  1
  C  C24  1  0.10430700  0.25785500  0.49759800  1
  C  C25  1  0.77744600  0.04307800  0.20046400  1
  C  C26  1  0.72255400  0.04307800  0.70046400  1
  C  C27  1  0.89569300  0.74214500  0.50240200  1
  C  C28  1  0.39569300  0.25785500  0.99759800  1
  C  C29  1  0.60430700  0.74214500  0.00240200  1
  C  C30  1  0.00000000  0.50000000  0.00000000  1
  C  C31  1  0.27744600  0.95692200  0.29953600  1
  C  C32  1  0.00000000  0.00000000  0.00000000  1
  C  C33  1  0.22255400  0.95692200  0.79953600  1
  C  C34  1  0.82666900  0.43964400  0.80917400  1
  C  C35  1  0.50000000  0.50000000  0.50000000  1
  N  N36  1  0.62182300  0.72757900  0.93607000  1
  N  N37  1  0.82557100  0.15043700  0.67600300  1
  N  N38  1  0.61591700  0.93590100  0.51157000  1
  N  N39  1  0.92250400  0.39482700  0.05317300  1
  N  N40  1  0.38408300  0.06409900  0.48843000  1
  N  N41  1  0.37831600  0.06702200  0.27250400  1
  N  N42  1  0.88408300  0.93590100  0.01157000  1
  N  N43  1  0.07627900  0.44590200  0.22297500  1
  N  N44  1  0.22655600  0.67155700  0.66211100  1
  N  N45  1  0.92372100  0.55409800  0.77702500  1
  N  N46  1  0.58070700  0.75740100  0.06833900  1
  N  N47  1  0.87831600  0.93297800  0.22749600  1
  N  N48  1  0.57627900  0.55409800  0.27702500  1
  N  N49  1  0.57749600  0.39482700  0.55317300  1
  N  N50  1  0.12168400  0.06702200  0.77250400  1
  N  N51  1  0.11591700  0.06409900  0.98843000  1
  N  N52  1  0.17442900  0.84956300  0.32399700  1
  N  N53  1  0.37817700  0.27242100  0.06393000  1
  N  N54  1  0.42372100  0.44590200  0.72297500  1
  N  N55  1  0.77344400  0.32844300  0.33788900  1
  N  N56  1  0.62168400  0.93297800  0.72749600  1
  N  N57  1  0.07749600  0.60517300  0.94682700  1
  N  N58  1  0.27344400  0.67155700  0.16211100  1
  N  N59  1  0.72655600  0.32844300  0.83788900  1
  N  N60  1  0.91929300  0.75740100  0.56833900  1
  N  N61  1  0.41929300  0.24259900  0.93166100  1
  N  N62  1  0.42250400  0.60517300  0.44682700  1
  N  N63  1  0.67442900  0.15043700  0.17600300  1
  N  N64  1  0.12182300  0.27242100  0.56393000  1
  N  N65  1  0.87817700  0.72757900  0.43607000  1
  N  N66  1  0.08070700  0.24259900  0.43166100  1
  N  N67  1  0.32557100  0.84956300  0.82399700  1
