# generated using pymatgen
data_SbXeOF9
_symmetry_space_group_name_H-M   'P 1'
_cell_length_a   8.88966800
_cell_length_b   10.02117182
_cell_length_c   10.48635833
_cell_angle_alpha   109.59428199
_cell_angle_beta   93.42036764
_cell_angle_gamma   103.76009400
_symmetry_Int_Tables_number   1
_chemical_formula_structural   SbXeOF9
_chemical_formula_sum   'Sb4 Xe4 O4 F36'
_cell_volume   844.83916217
_cell_formula_units_Z   4
loop_
 _symmetry_equiv_pos_site_id
 _symmetry_equiv_pos_as_xyz
  1  'x, y, z'
loop_
 _atom_site_type_symbol
 _atom_site_label
 _atom_site_symmetry_multiplicity
 _atom_site_fract_x
 _atom_site_fract_y
 _atom_site_fract_z
 _atom_site_occupancy
  Sb  Sb0  1  0.92402100  0.75517900  0.25545100  1
  Sb  Sb1  1  0.44499100  0.77717800  0.58983600  1
  Sb  Sb2  1  0.07597900  0.24482100  0.74454900  1
  Sb  Sb3  1  0.55500900  0.22282200  0.41016400  1
  Xe  Xe4  1  0.54490100  0.22001300  0.86675700  1
  Xe  Xe5  1  0.92334000  0.79386400  0.72281700  1
  Xe  Xe6  1  0.45509900  0.77998700  0.13324300  1
  Xe  Xe7  1  0.07666000  0.20613600  0.27718300  1
  O  O8  1  0.90098600  0.14569700  0.15107500  1
  O  O9  1  0.71115600  0.20377600  0.96490700  1
  O  O10  1  0.28884400  0.79622400  0.03509300  1
  O  O11  1  0.09901400  0.85430300  0.84892500  1
  F  F12  1  0.43701500  0.01391200  0.30775000  1
  F  F13  1  0.52881400  0.64366200  0.97982700  1
  F  F14  1  0.29939600  0.25023400  0.75809500  1
  F  F15  1  0.12944100  0.45306100  0.80842100  1
  F  F16  1  0.92209100  0.75956000  0.07581400  1
  F  F17  1  0.98261900  0.61519100  0.60978700  1
  F  F18  1  0.08695300  0.23146300  0.55892100  1
  F  F19  1  0.47771900  0.81442800  0.42448900  1
  F  F20  1  0.82387700  0.93633800  0.84761300  1
  F  F21  1  0.17612300  0.06366200  0.15238700  1
  F  F22  1  0.61355900  0.93341400  0.09201100  1
  F  F23  1  0.96718400  0.97239300  0.32429200  1
  F  F24  1  0.34292200  0.57646700  0.49001000  1
  F  F25  1  0.01738100  0.38480900  0.39021300  1
  F  F26  1  0.38644100  0.06658600  0.90798900  1
  F  F27  1  0.52228100  0.18557200  0.57551100  1
  F  F28  1  0.91304700  0.76853700  0.44107900  1
  F  F29  1  0.65707800  0.42353300  0.50999000  1
  F  F30  1  0.34826700  0.26049700  0.41167600  1
  F  F31  1  0.74097000  0.15942700  0.40377800  1
  F  F32  1  0.66518600  0.40893300  0.85116800  1
  F  F33  1  0.87055900  0.54693900  0.19157900  1
  F  F34  1  0.78437400  0.65034100  0.78663000  1
  F  F35  1  0.07790900  0.24044000  0.92418600  1
  F  F36  1  0.43467500  0.75148700  0.76056100  1
  F  F37  1  0.25903000  0.84057300  0.59622200  1
  F  F38  1  0.85652900  0.22150600  0.71818100  1
  F  F39  1  0.70060400  0.74976600  0.24190500  1
  F  F40  1  0.47118600  0.35633800  0.02017300  1
  F  F41  1  0.21562600  0.34965900  0.21337000  1
  F  F42  1  0.14347100  0.77849400  0.28181900  1
  F  F43  1  0.56532500  0.24851300  0.23943900  1
  F  F44  1  0.33481400  0.59106700  0.14883200  1
  F  F45  1  0.03281600  0.02760700  0.67570800  1
  F  F46  1  0.65173300  0.73950300  0.58832400  1
  F  F47  1  0.56298500  0.98608800  0.69225000  1
