# generated using pymatgen
data_CsPr(PO3)4
_symmetry_space_group_name_H-M   'P 1'
_cell_length_a   9.19967600
_cell_length_b   10.67484300
_cell_length_c   13.20229823
_cell_angle_alpha   55.82000710
_cell_angle_beta   90.00000000
_cell_angle_gamma   90.00000000
_symmetry_Int_Tables_number   1
_chemical_formula_structural   CsPr(PO3)4
_chemical_formula_sum   'Cs4 Pr4 P16 O48'
_cell_volume   1072.59164967
_cell_formula_units_Z   4
loop_
 _symmetry_equiv_pos_site_id
 _symmetry_equiv_pos_as_xyz
  1  'x, y, z'
loop_
 _atom_site_type_symbol
 _atom_site_label
 _atom_site_symmetry_multiplicity
 _atom_site_fract_x
 _atom_site_fract_y
 _atom_site_fract_z
 _atom_site_occupancy
  Cs  Cs0  1  0.56601500  0.22614900  0.46074200  1
  Cs  Cs1  1  0.06601500  0.77385100  0.03925800  1
  Cs  Cs2  1  0.43398500  0.77385100  0.53925800  1
  Cs  Cs3  1  0.93398500  0.22614900  0.96074200  1
  Pr  Pr4  1  0.72576000  0.68332600  0.81824900  1
  Pr  Pr5  1  0.22576000  0.31667400  0.68175100  1
  Pr  Pr6  1  0.77424000  0.68332600  0.31824900  1
  Pr  Pr7  1  0.27424000  0.31667400  0.18175100  1
  P  P8  1  0.39764700  0.19983700  0.97526300  1
  P  P9  1  0.03088800  0.96693400  0.28433300  1
  P  P10  1  0.46911200  0.96693400  0.78433300  1
  P  P11  1  0.59344500  0.38435500  0.75935500  1
  P  P12  1  0.67555300  0.32380400  0.13732000  1
  P  P13  1  0.09344500  0.61564500  0.74064500  1
  P  P14  1  0.82444700  0.32380400  0.63732000  1
  P  P15  1  0.96911200  0.03306600  0.71566700  1
  P  P16  1  0.40655500  0.61564500  0.24064500  1
  P  P17  1  0.32444700  0.67619600  0.86268000  1
  P  P18  1  0.90655500  0.38435500  0.25935500  1
  P  P19  1  0.10235300  0.19983700  0.47526300  1
  P  P20  1  0.53088800  0.03306600  0.21566700  1
  P  P21  1  0.89764700  0.80016300  0.52473700  1
  P  P22  1  0.60235300  0.80016300  0.02473700  1
  P  P23  1  0.17555300  0.67619600  0.36268000  1
  O  O24  1  0.46195100  0.04663400  0.09630100  1
  O  O25  1  0.67672800  0.51193600  0.74861000  1
  O  O26  1  0.03705200  0.63369300  0.32941800  1
  O  O27  1  0.84010000  0.15951700  0.65680700  1
  O  O28  1  0.53804900  0.95336600  0.90369900  1
  O  O29  1  0.03574500  0.42146400  0.17764900  1
  O  O30  1  0.65990000  0.15951700  0.15680700  1
  O  O31  1  0.55005700  0.26455600  0.90074600  1
  O  O32  1  0.34344700  0.30015300  0.01312000  1
  O  O33  1  0.53705200  0.36630700  0.17058200  1
  O  O34  1  0.79474700  0.83829800  0.59200700  1
  O  O35  1  0.07926600  0.07531600  0.77604300  1
  O  O36  1  0.82327200  0.51193600  0.24861000  1
  O  O37  1  0.70591400  0.27740100  0.74482000  1
  O  O38  1  0.42073400  0.07531600  0.27604300  1
  O  O39  1  0.44994300  0.73544400  0.09925400  1
  O  O40  1  0.20525300  0.16170200  0.40799300  1
  O  O41  1  0.46425500  0.42146400  0.67764900  1
  O  O42  1  0.29474700  0.16170200  0.90799300  1
  O  O43  1  0.32327200  0.48806400  0.25139000  1
  O  O44  1  0.65655300  0.69984700  0.98688000  1
  O  O45  1  0.94994300  0.26455600  0.40074600  1
  O  O46  1  0.96294800  0.36630700  0.67058200  1
  O  O47  1  0.29408600  0.72259900  0.25518000  1
  O  O48  1  0.05005700  0.73544400  0.59925400  1
  O  O49  1  0.46294800  0.63369300  0.82941800  1
  O  O50  1  0.84344700  0.69984700  0.48688000  1
  O  O51  1  0.17672800  0.48806400  0.75139000  1
  O  O52  1  0.59834400  0.87919800  0.29342800  1
  O  O53  1  0.40165600  0.12080200  0.70657200  1
  O  O54  1  0.09834400  0.12080200  0.20657200  1
  O  O55  1  0.25550500  0.57323600  0.98580600  1
  O  O56  1  0.96425500  0.57853600  0.82235100  1
  O  O57  1  0.96195100  0.95336600  0.40369900  1
  O  O58  1  0.15990000  0.84048300  0.34319300  1
  O  O59  1  0.70525300  0.83829800  0.09200700  1
  O  O60  1  0.92073400  0.92468400  0.22395700  1
  O  O61  1  0.90165600  0.87919800  0.79342800  1
  O  O62  1  0.15655300  0.30015300  0.51312000  1
  O  O63  1  0.24449500  0.57323600  0.48580600  1
  O  O64  1  0.34010000  0.84048300  0.84319300  1
  O  O65  1  0.75550500  0.42676400  0.51419400  1
  O  O66  1  0.79408600  0.27740100  0.24482000  1
  O  O67  1  0.57926600  0.92468400  0.72395700  1
  O  O68  1  0.74449500  0.42676400  0.01419400  1
  O  O69  1  0.53574500  0.57853600  0.32235100  1
  O  O70  1  0.20591400  0.72259900  0.75518000  1
  O  O71  1  0.03804900  0.04663400  0.59630100  1
