# generated using pymatgen
data_Cu3BiTe2ClO8
_symmetry_space_group_name_H-M   'P 1'
_cell_length_a   6.44878300
_cell_length_b   10.02407500
_cell_length_c   14.53269400
_cell_angle_alpha   90.00000000
_cell_angle_beta   90.00000000
_cell_angle_gamma   90.00000000
_symmetry_Int_Tables_number   1
_chemical_formula_structural   Cu3BiTe2ClO8
_chemical_formula_sum   'Cu12 Bi4 Te8 Cl4 O32'
_cell_volume   939.43816554
_cell_formula_units_Z   4
loop_
 _symmetry_equiv_pos_site_id
 _symmetry_equiv_pos_as_xyz
  1  'x, y, z'
loop_
 _atom_site_type_symbol
 _atom_site_label
 _atom_site_symmetry_multiplicity
 _atom_site_fract_x
 _atom_site_fract_y
 _atom_site_fract_z
 _atom_site_occupancy
  Cu  Cu0  1  0.19447600  0.75000000  0.64084600  1
  Cu  Cu1  1  0.01534100  0.01248100  0.75933200  1
  Cu  Cu2  1  0.30552400  0.75000000  0.14084600  1
  Cu  Cu3  1  0.98465900  0.98751900  0.24066800  1
  Cu  Cu4  1  0.48465900  0.48751900  0.25933200  1
  Cu  Cu5  1  0.69447600  0.25000000  0.85915400  1
  Cu  Cu6  1  0.01534100  0.48751900  0.75933200  1
  Cu  Cu7  1  0.80552400  0.25000000  0.35915400  1
  Cu  Cu8  1  0.48465900  0.01248100  0.25933200  1
  Cu  Cu9  1  0.51534100  0.98751900  0.74066800  1
  Cu  Cu10  1  0.98465900  0.51248100  0.24066800  1
  Cu  Cu11  1  0.51534100  0.51248100  0.74066800  1
  Bi  Bi12  1  0.76517900  0.25000000  0.63525500  1
  Bi  Bi13  1  0.26517900  0.75000000  0.86474500  1
  Bi  Bi14  1  0.23482100  0.75000000  0.36474500  1
  Bi  Bi15  1  0.73482100  0.25000000  0.13525500  1
  Te  Te16  1  0.74188700  0.56323700  0.95685000  1
  Te  Te17  1  0.25811300  0.06323700  0.04315000  1
  Te  Te18  1  0.24188700  0.06323700  0.54315000  1
  Te  Te19  1  0.24188700  0.43676300  0.54315000  1
  Te  Te20  1  0.75811300  0.56323700  0.45685000  1
  Te  Te21  1  0.75811300  0.93676300  0.45685000  1
  Te  Te22  1  0.25811300  0.43676300  0.04315000  1
  Te  Te23  1  0.74188700  0.93676300  0.95685000  1
  Cl  Cl24  1  0.77992500  0.75000000  0.67752300  1
  Cl  Cl25  1  0.27992500  0.25000000  0.82247700  1
  Cl  Cl26  1  0.72007500  0.75000000  0.17752300  1
  Cl  Cl27  1  0.22007500  0.25000000  0.32247700  1
  O  O28  1  0.00735700  0.44162200  0.11427800  1
  O  O29  1  0.99264300  0.55837800  0.88572200  1
  O  O30  1  0.74994900  0.11359300  0.76209000  1
  O  O31  1  0.54954900  0.60241500  0.85959300  1
  O  O32  1  0.75005100  0.38640700  0.26209000  1
  O  O33  1  0.04954900  0.10241500  0.64040700  1
  O  O34  1  0.17838600  0.87926700  0.53659800  1
  O  O35  1  0.45045100  0.10241500  0.14040700  1
  O  O36  1  0.99264300  0.94162200  0.88572200  1
  O  O37  1  0.49264300  0.44162200  0.61427800  1
  O  O38  1  0.00735700  0.05837800  0.11427800  1
  O  O39  1  0.25005100  0.61359300  0.23791000  1
  O  O40  1  0.32161400  0.87926700  0.03659800  1
  O  O41  1  0.24994900  0.61359300  0.73791000  1
  O  O42  1  0.25005100  0.88640700  0.23791000  1
  O  O43  1  0.32161400  0.62073300  0.03659800  1
  O  O44  1  0.82161400  0.12073300  0.46340200  1
  O  O45  1  0.24994900  0.88640700  0.73791000  1
  O  O46  1  0.17838600  0.62073300  0.53659800  1
  O  O47  1  0.50735700  0.55837800  0.38572200  1
  O  O48  1  0.50735700  0.94162200  0.38572200  1
  O  O49  1  0.82161400  0.37926700  0.46340200  1
  O  O50  1  0.04954900  0.39758500  0.64040700  1
  O  O51  1  0.67838600  0.12073300  0.96340200  1
  O  O52  1  0.95045100  0.60241500  0.35959300  1
  O  O53  1  0.67838600  0.37926700  0.96340200  1
  O  O54  1  0.45045100  0.39758500  0.14040700  1
  O  O55  1  0.74994900  0.38640700  0.76209000  1
  O  O56  1  0.75005100  0.11359300  0.26209000  1
  O  O57  1  0.49264300  0.05837800  0.61427800  1
  O  O58  1  0.54954900  0.89758500  0.85959300  1
  O  O59  1  0.95045100  0.89758500  0.35959300  1
