# generated using pymatgen
data_TaP4(SCl)5
_symmetry_space_group_name_H-M   'P 1'
_cell_length_a   13.89255100
_cell_length_b   7.30235500
_cell_length_c   18.74992965
_cell_angle_alpha   76.82691221
_cell_angle_beta   90.00000000
_cell_angle_gamma   90.00000000
_symmetry_Int_Tables_number   1
_chemical_formula_structural   TaP4(SCl)5
_chemical_formula_sum   'Ta4 P16 S20 Cl20'
_cell_volume   1852.09617083
_cell_formula_units_Z   4
loop_
 _symmetry_equiv_pos_site_id
 _symmetry_equiv_pos_as_xyz
  1  'x, y, z'
loop_
 _atom_site_type_symbol
 _atom_site_label
 _atom_site_symmetry_multiplicity
 _atom_site_fract_x
 _atom_site_fract_y
 _atom_site_fract_z
 _atom_site_occupancy
  Ta  Ta0  1  0.30598700  0.27179300  0.53020100  1
  Ta  Ta1  1  0.80598700  0.72820700  0.96979900  1
  Ta  Ta2  1  0.69401300  0.72820700  0.46979900  1
  Ta  Ta3  1  0.19401300  0.27179300  0.03020100  1
  P  P4  1  0.05263600  0.90458000  0.29788300  1
  P  P5  1  0.14040100  0.30494900  0.61414100  1
  P  P6  1  0.67230700  0.76720400  0.76030500  1
  P  P7  1  0.82769300  0.76720400  0.26030500  1
  P  P8  1  0.64040100  0.69505100  0.88585900  1
  P  P9  1  0.32769300  0.23279600  0.23969500  1
  P  P10  1  0.00766500  0.58350300  0.69137200  1
  P  P11  1  0.17230700  0.23279600  0.73969500  1
  P  P12  1  0.35959900  0.30494900  0.11414100  1
  P  P13  1  0.94736400  0.09542000  0.70211700  1
  P  P14  1  0.55263600  0.09542000  0.20211700  1
  P  P15  1  0.50766500  0.41649700  0.80862800  1
  P  P16  1  0.99233500  0.41649700  0.30862800  1
  P  P17  1  0.44736400  0.90458000  0.79788300  1
  P  P18  1  0.85959900  0.69505100  0.38585900  1
  P  P19  1  0.49233500  0.58350300  0.19137200  1
  S  S20  1  0.60059900  0.37098900  0.20562500  1
  S  S21  1  0.56522300  0.97428500  0.72389300  1
  S  S22  1  0.58376200  0.42105800  0.90726500  1
  S  S23  1  0.02763400  0.12112700  0.60267500  1
  S  S24  1  0.52763400  0.87887300  0.89732500  1
  S  S25  1  0.37777400  0.48388800  0.26553200  1
  S  S26  1  0.41623800  0.57894200  0.09273500  1
  S  S27  1  0.97236600  0.87887300  0.39732500  1
  S  S28  1  0.12222600  0.48388800  0.76553200  1
  S  S29  1  0.47236600  0.12112700  0.10267500  1
  S  S30  1  0.89940100  0.37098900  0.70562500  1
  S  S31  1  0.39940100  0.62901100  0.79437500  1
  S  S32  1  0.91623800  0.42105800  0.40726500  1
  S  S33  1  0.08376200  0.57894200  0.59273500  1
  S  S34  1  0.43477700  0.02571500  0.27610700  1
  S  S35  1  0.93477700  0.97428500  0.22389300  1
  S  S36  1  0.62222600  0.51611200  0.73446800  1
  S  S37  1  0.87777400  0.51611200  0.23446800  1
  S  S38  1  0.10059900  0.62901100  0.29437500  1
  S  S39  1  0.06522300  0.02571500  0.77610700  1
  Cl  Cl40  1  0.20137300  0.97324000  0.10970500  1
  Cl  Cl41  1  0.69744600  0.83357800  0.04762600  1
  Cl  Cl42  1  0.37471100  0.38905900  0.62526200  1
  Cl  Cl43  1  0.80255400  0.83357800  0.54762600  1
  Cl  Cl44  1  0.55522300  0.76538800  0.52924400  1
  Cl  Cl45  1  0.19744600  0.16642200  0.45237400  1
  Cl  Cl46  1  0.44477700  0.23461200  0.47075600  1
  Cl  Cl47  1  0.30255400  0.16642200  0.95237400  1
  Cl  Cl48  1  0.94477700  0.76538800  0.02924400  1
  Cl  Cl49  1  0.12528900  0.38905900  0.12526200  1
  Cl  Cl50  1  0.87471100  0.61094100  0.87473800  1
  Cl  Cl51  1  0.73002400  0.41975200  0.52991200  1
  Cl  Cl52  1  0.05522300  0.23461200  0.97075600  1
  Cl  Cl53  1  0.29862700  0.97324000  0.60970500  1
  Cl  Cl54  1  0.79862700  0.02676000  0.89029500  1
  Cl  Cl55  1  0.26997600  0.58024800  0.47008800  1
  Cl  Cl56  1  0.62528900  0.61094100  0.37473800  1
  Cl  Cl57  1  0.76997600  0.41975200  0.02991200  1
  Cl  Cl58  1  0.70137300  0.02676000  0.39029500  1
  Cl  Cl59  1  0.23002400  0.58024800  0.97008800  1
