# generated using pymatgen
data_Ba2In2Se5
_symmetry_space_group_name_H-M   'P 1'
_cell_length_a   12.48758400
_cell_length_b   13.43874000
_cell_length_c   13.93091600
_cell_angle_alpha   90.00000000
_cell_angle_beta   90.00000000
_cell_angle_gamma   90.00000000
_symmetry_Int_Tables_number   1
_chemical_formula_structural   Ba2In2Se5
_chemical_formula_sum   'Ba16 In16 Se40'
_cell_volume   2337.85002757
_cell_formula_units_Z   8
loop_
 _symmetry_equiv_pos_site_id
 _symmetry_equiv_pos_as_xyz
  1  'x, y, z'
loop_
 _atom_site_type_symbol
 _atom_site_label
 _atom_site_symmetry_multiplicity
 _atom_site_fract_x
 _atom_site_fract_y
 _atom_site_fract_z
 _atom_site_occupancy
  Ba  Ba0  1  0.25069100  0.74583600  0.81097100  1
  Ba  Ba1  1  0.49630300  0.02868100  0.30720600  1
  Ba  Ba2  1  0.74930900  0.25416400  0.18902900  1
  Ba  Ba3  1  0.49630300  0.52868100  0.19279400  1
  Ba  Ba4  1  0.99630300  0.47131900  0.30720600  1
  Ba  Ba5  1  0.00369700  0.02868100  0.80720600  1
  Ba  Ba6  1  0.24930900  0.24583600  0.18902900  1
  Ba  Ba7  1  0.25069100  0.24583600  0.68902900  1
  Ba  Ba8  1  0.75069100  0.25416400  0.68902900  1
  Ba  Ba9  1  0.75069100  0.75416400  0.81097100  1
  Ba  Ba10  1  0.50369700  0.97131900  0.69279400  1
  Ba  Ba11  1  0.00369700  0.52868100  0.69279400  1
  Ba  Ba12  1  0.99630300  0.97131900  0.19279400  1
  Ba  Ba13  1  0.74930900  0.75416400  0.31097100  1
  Ba  Ba14  1  0.24930900  0.74583600  0.31097100  1
  Ba  Ba15  1  0.50369700  0.47131900  0.80720600  1
  In  In16  1  0.55961800  0.80386100  0.05133200  1
  In  In17  1  0.44038200  0.19613900  0.94866800  1
  In  In18  1  0.22802500  0.96500300  0.52779700  1
  In  In19  1  0.22802500  0.46500300  0.97220300  1
  In  In20  1  0.05961800  0.69613900  0.05133200  1
  In  In21  1  0.27197500  0.46500300  0.47220300  1
  In  In22  1  0.94038200  0.80386100  0.55133200  1
  In  In23  1  0.72802500  0.53499700  0.52779700  1
  In  In24  1  0.55961800  0.30386100  0.44866800  1
  In  In25  1  0.77197500  0.03499700  0.47220300  1
  In  In26  1  0.05961800  0.19613900  0.44866800  1
  In  In27  1  0.44038200  0.69613900  0.55133200  1
  In  In28  1  0.77197500  0.53499700  0.02779700  1
  In  In29  1  0.94038200  0.30386100  0.94866800  1
  In  In30  1  0.72802500  0.03499700  0.97220300  1
  In  In31  1  0.27197500  0.96500300  0.02779700  1
  Se  Se32  1  0.49692700  0.21909500  0.77316000  1
  Se  Se33  1  0.06908300  0.39094800  0.07252300  1
  Se  Se34  1  0.40982100  0.37693800  0.02598800  1
  Se  Se35  1  0.93091700  0.10905200  0.57252300  1
  Se  Se36  1  0.50307300  0.28090500  0.27316000  1
  Se  Se37  1  0.24114600  0.98834000  0.71165700  1
  Se  Se38  1  0.73634700  0.85499800  0.54144800  1
  Se  Se39  1  0.06908300  0.89094800  0.42747700  1
  Se  Se40  1  0.49692700  0.71909500  0.72684000  1
  Se  Se41  1  0.99692700  0.78090500  0.72684000  1
  Se  Se42  1  0.09017900  0.37693800  0.52598800  1
  Se  Se43  1  0.40982100  0.87693800  0.47401200  1
  Se  Se44  1  0.93091700  0.60905200  0.92747700  1
  Se  Se45  1  0.09017900  0.87693800  0.97401200  1
  Se  Se46  1  0.56908300  0.10905200  0.07252300  1
  Se  Se47  1  0.73634700  0.35499800  0.95855200  1
  Se  Se48  1  0.23634700  0.14500200  0.95855200  1
  Se  Se49  1  0.43091700  0.89094800  0.92747700  1
  Se  Se50  1  0.23634700  0.64500200  0.54144800  1
  Se  Se51  1  0.75885400  0.51166000  0.21165700  1
  Se  Se52  1  0.74114600  0.51166000  0.71165700  1
  Se  Se53  1  0.76365300  0.85499800  0.04144800  1
  Se  Se54  1  0.25885400  0.48834000  0.28834300  1
  Se  Se55  1  0.26365300  0.64500200  0.04144800  1
  Se  Se56  1  0.00307300  0.71909500  0.22684000  1
  Se  Se57  1  0.26365300  0.14500200  0.45855200  1
  Se  Se58  1  0.90982100  0.12306200  0.02598800  1
  Se  Se59  1  0.50307300  0.78090500  0.22684000  1
  Se  Se60  1  0.43091700  0.39094800  0.57252300  1
  Se  Se61  1  0.59017900  0.12306200  0.52598800  1
  Se  Se62  1  0.75885400  0.01166000  0.28834300  1
  Se  Se63  1  0.76365300  0.35499800  0.45855200  1
  Se  Se64  1  0.24114600  0.48834000  0.78834300  1
  Se  Se65  1  0.59017900  0.62306200  0.97401200  1
  Se  Se66  1  0.99692700  0.28090500  0.77316000  1
  Se  Se67  1  0.00307300  0.21909500  0.27316000  1
  Se  Se68  1  0.74114600  0.01166000  0.78834300  1
  Se  Se69  1  0.56908300  0.60905200  0.42747700  1
  Se  Se70  1  0.90982100  0.62306200  0.47401200  1
  Se  Se71  1  0.25885400  0.98834000  0.21165700  1
