# generated using pymatgen
data_K2ZnN12
_symmetry_space_group_name_H-M   'P 1'
_cell_length_a   11.37821300
_cell_length_b   11.82166200
_cell_length_c   14.53361700
_cell_angle_alpha   90.00000000
_cell_angle_beta   90.00000000
_cell_angle_gamma   90.00000000
_symmetry_Int_Tables_number   1
_chemical_formula_structural   K2ZnN12
_chemical_formula_sum   'K16 Zn8 N96'
_cell_volume   1954.90793173
_cell_formula_units_Z   8
loop_
 _symmetry_equiv_pos_site_id
 _symmetry_equiv_pos_as_xyz
  1  'x, y, z'
loop_
 _atom_site_type_symbol
 _atom_site_label
 _atom_site_symmetry_multiplicity
 _atom_site_fract_x
 _atom_site_fract_y
 _atom_site_fract_z
 _atom_site_occupancy
  K  K0  1  0.75771000  0.91741000  0.60577100  1
  K  K1  1  0.79838700  0.75070800  0.84346200  1
  K  K2  1  0.20161300  0.24929200  0.15653800  1
  K  K3  1  0.79838700  0.25070800  0.65653800  1
  K  K4  1  0.20161300  0.74929200  0.34346200  1
  K  K5  1  0.74229000  0.91741000  0.10577100  1
  K  K6  1  0.70161300  0.25070800  0.15653800  1
  K  K7  1  0.25771000  0.08259000  0.89422900  1
  K  K8  1  0.70161300  0.75070800  0.34346200  1
  K  K9  1  0.24229000  0.58259000  0.10577100  1
  K  K10  1  0.75771000  0.41741000  0.89422900  1
  K  K11  1  0.25771000  0.58259000  0.60577100  1
  K  K12  1  0.24229000  0.08259000  0.39422900  1
  K  K13  1  0.29838700  0.74929200  0.84346200  1
  K  K14  1  0.74229000  0.41741000  0.39422900  1
  K  K15  1  0.29838700  0.24929200  0.65653800  1
  Zn  Zn16  1  0.75212500  0.07483000  0.88616300  1
  Zn  Zn17  1  0.24787500  0.42517000  0.38616300  1
  Zn  Zn18  1  0.74787500  0.57483000  0.11383700  1
  Zn  Zn19  1  0.25212500  0.42517000  0.88616300  1
  Zn  Zn20  1  0.25212500  0.92517000  0.61383700  1
  Zn  Zn21  1  0.75212500  0.57483000  0.61383700  1
  Zn  Zn22  1  0.24787500  0.92517000  0.11383700  1
  Zn  Zn23  1  0.74787500  0.07483000  0.38616300  1
  N  N24  1  0.45975600  0.98658100  0.70912700  1
  N  N25  1  0.43789200  0.01077900  0.29253300  1
  N  N26  1  0.66037100  0.70511100  0.66731400  1
  N  N27  1  0.04687800  0.21563300  0.31981100  1
  N  N28  1  0.33909000  0.56674200  0.42041300  1
  N  N29  1  0.56111300  0.63386900  0.99005900  1
  N  N30  1  0.04611300  0.91156000  0.41511900  1
  N  N31  1  0.94453400  0.92446800  0.41686300  1
  N  N32  1  0.33309600  0.37092100  0.00272400  1
  N  N33  1  0.05505200  0.79189900  0.67289600  1
  N  N34  1  0.66091000  0.43325800  0.57958700  1
  N  N35  1  0.55505200  0.70810100  0.67289600  1
  N  N36  1  0.44494800  0.79189900  0.17289600  1
  N  N37  1  0.16690400  0.37092100  0.50272400  1
  N  N38  1  0.93888700  0.13386900  0.00994100  1
  N  N39  1  0.05546600  0.07553200  0.58313700  1
  N  N40  1  0.55546600  0.42446800  0.58313700  1
  N  N41  1  0.43888700  0.36613100  0.00994100  1
  N  N42  1  0.05505200  0.29189900  0.82710400  1
  N  N43  1  0.04611300  0.41156000  0.08488100  1
  N  N44  1  0.83309600  0.12907900  0.00272400  1
  N  N45  1  0.45312200  0.71563300  0.68018900  1
  N  N46  1  0.95978700  0.35993000  0.52062000  1
  N  N47  1  0.83909000  0.93325800  0.42041300  1
  N  N48  1  0.85398700  0.01348600  0.78496500  1
  N  N49  1  0.44453400  0.57553200  0.41686300  1
  N  N50  1  0.04021300  0.14007000  0.02062000  1
  N  N51  1  0.95312200  0.78436700  0.68018900  1
  N  N52  1  0.04024400  0.98658100  0.20912700  1
  N  N53  1  0.66690400  0.62907900  0.99727600  1
  N  N54  1  0.64601300  0.01348600  0.28496500  1
  N  N55  1  0.44494800  0.29189900  0.32710400  1
  N  N56  1  0.16037100  0.29488900  0.83268600  1
  N  N57  1  0.35398700  0.98651400  0.71503500  1
  N  N58  1  0.54687800  0.78436700  0.18018900  1
  N  N59  1  0.93789200  0.98922100  0.20746700  1
  N  N60  1  0.66091000  0.93325800  0.92041300  1
  N  N61  1  0.45312200  0.21563300  0.81981100  1
  N  N62  1  0.33962900  0.29488900  0.33268600  1
  N  N63  1  0.83962900  0.20511100  0.33268600  1
  N  N64  1  0.54024400  0.01341900  0.29087300  1
  N  N65  1  0.04687800  0.71563300  0.18018900  1
  N  N66  1  0.95975600  0.51341900  0.70912700  1
  N  N67  1  0.54611300  0.08844000  0.08488100  1
  N  N68  1  0.43789200  0.51077900  0.20746700  1
  N  N69  1  0.56111300  0.13386900  0.50994100  1
  N  N70  1  0.35398700  0.48651400  0.78496500  1
  N  N71  1  0.05546600  0.57553200  0.91686300  1
  N  N72  1  0.54021300  0.85993000  0.47938000  1
  N  N73  1  0.04024400  0.48658100  0.29087300  1
  N  N74  1  0.95978700  0.85993000  0.97938000  1
  N  N75  1  0.95388700  0.08844000  0.58488100  1
  N  N76  1  0.66690400  0.12907900  0.50272400  1
  N  N77  1  0.45388700  0.41156000  0.58488100  1
  N  N78  1  0.83309600  0.62907900  0.49727600  1
  N  N79  1  0.33309600  0.87092100  0.49727600  1
  N  N80  1  0.94494800  0.20810100  0.32710400  1
  N  N81  1  0.45388700  0.91156000  0.91511900  1
  N  N82  1  0.06210800  0.01077900  0.79253300  1
  N  N83  1  0.56210800  0.48922100  0.79253300  1
  N  N84  1  0.16091000  0.06674200  0.57958700  1
  N  N85  1  0.16690400  0.87092100  0.99727600  1
  N  N86  1  0.06111300  0.36613100  0.50994100  1
  N  N87  1  0.54021300  0.35993000  0.02062000  1
  N  N88  1  0.16091000  0.56674200  0.92041300  1
  N  N89  1  0.83962900  0.70511100  0.16731400  1
  N  N90  1  0.93789200  0.48922100  0.29253300  1
  N  N91  1  0.85398700  0.51348600  0.71503500  1
  N  N92  1  0.56210800  0.98922100  0.70746700  1
  N  N93  1  0.33909000  0.06674200  0.07958700  1
  N  N94  1  0.95312200  0.28436700  0.81981100  1
  N  N95  1  0.45978700  0.64007000  0.97938000  1
  N  N96  1  0.16037100  0.79488900  0.66731400  1
  N  N97  1  0.45978700  0.14007000  0.52062000  1
  N  N98  1  0.95388700  0.58844000  0.91511900  1
  N  N99  1  0.04021300  0.64007000  0.47938000  1
  N  N100  1  0.06111300  0.86613100  0.99005900  1
  N  N101  1  0.66037100  0.20511100  0.83268600  1
  N  N102  1  0.54687800  0.28436700  0.31981100  1
  N  N103  1  0.94453400  0.42446800  0.08313700  1
  N  N104  1  0.14601300  0.98651400  0.21503500  1
  N  N105  1  0.55546600  0.92446800  0.91686300  1
  N  N106  1  0.06210800  0.51077900  0.70746700  1
  N  N107  1  0.45975600  0.48658100  0.79087300  1
  N  N108  1  0.44453400  0.07553200  0.08313700  1
  N  N109  1  0.83909000  0.43325800  0.07958700  1
  N  N110  1  0.33962900  0.79488900  0.16731400  1
  N  N111  1  0.94494800  0.70810100  0.17289600  1
  N  N112  1  0.14601300  0.48651400  0.28496500  1
  N  N113  1  0.95975600  0.01341900  0.79087300  1
  N  N114  1  0.54024400  0.51341900  0.20912700  1
  N  N115  1  0.43888700  0.86613100  0.49005900  1
  N  N116  1  0.64601300  0.51348600  0.21503500  1
  N  N117  1  0.55505200  0.20810100  0.82710400  1
  N  N118  1  0.54611300  0.58844000  0.41511900  1
  N  N119  1  0.93888700  0.63386900  0.49005900  1
