# generated using pymatgen
data_SbPb2S2I3
_symmetry_space_group_name_H-M   'P 1'
_cell_length_a   16.74820200
_cell_length_b   7.80417800
_cell_length_c   8.75846233
_cell_angle_alpha   73.34339378
_cell_angle_beta   90.00000000
_cell_angle_gamma   90.00000000
_symmetry_Int_Tables_number   1
_chemical_formula_structural   SbPb2S2I3
_chemical_formula_sum   'Sb4 Pb8 S8 I12'
_cell_volume   1096.74787193
_cell_formula_units_Z   4
loop_
 _symmetry_equiv_pos_site_id
 _symmetry_equiv_pos_as_xyz
  1  'x, y, z'
loop_
 _atom_site_type_symbol
 _atom_site_label
 _atom_site_symmetry_multiplicity
 _atom_site_fract_x
 _atom_site_fract_y
 _atom_site_fract_z
 _atom_site_occupancy
  Sb  Sb0  1  0.98101000  0.30363600  0.67772800  1
  Sb  Sb1  1  0.48101000  0.69636400  0.82227200  1
  Sb  Sb2  1  0.51899000  0.30363600  0.17772800  1
  Sb  Sb3  1  0.01899000  0.69636400  0.32227200  1
  Pb  Pb4  1  0.47278100  0.75596800  0.30813600  1
  Pb  Pb5  1  0.73368000  0.61170800  0.33606000  1
  Pb  Pb6  1  0.52721900  0.24403200  0.69186400  1
  Pb  Pb7  1  0.02721900  0.75596800  0.80813600  1
  Pb  Pb8  1  0.23368000  0.38829200  0.16394000  1
  Pb  Pb9  1  0.26632000  0.38829200  0.66394000  1
  Pb  Pb10  1  0.97278100  0.24403200  0.19186400  1
  Pb  Pb11  1  0.76632000  0.61170800  0.83606000  1
  S  S12  1  0.42419500  0.53861300  0.63298400  1
  S  S13  1  0.91463200  0.46165700  0.40595200  1
  S  S14  1  0.92419500  0.46138700  0.86701600  1
  S  S15  1  0.08536800  0.53834300  0.59404800  1
  S  S16  1  0.41463200  0.53834300  0.09404800  1
  S  S17  1  0.57580500  0.46138700  0.36701600  1
  S  S18  1  0.58536800  0.46165700  0.90595200  1
  S  S19  1  0.07580500  0.53861300  0.13298400  1
  I  I20  1  0.88291900  0.86698100  0.03280400  1
  I  I21  1  0.38025800  0.10226800  0.96778200  1
  I  I22  1  0.11974200  0.10226800  0.46778200  1
  I  I23  1  0.74131600  0.31025200  0.66921800  1
  I  I24  1  0.11708100  0.13301900  0.96719600  1
  I  I25  1  0.61974200  0.89773200  0.03221800  1
  I  I26  1  0.24131600  0.68974800  0.83078200  1
  I  I27  1  0.88025800  0.89773200  0.53221800  1
  I  I28  1  0.61708100  0.86698100  0.53280400  1
  I  I29  1  0.38291900  0.13301900  0.46719600  1
  I  I30  1  0.75868400  0.31025200  0.16921800  1
  I  I31  1  0.25868400  0.68974800  0.33078200  1
