# generated using pymatgen
data_AgI
_symmetry_space_group_name_H-M   'P 1'
_cell_length_a   4.84863381
_cell_length_b   4.84863381
_cell_length_c   14.48723500
_cell_angle_alpha   90.00000000
_cell_angle_beta   90.00000000
_cell_angle_gamma   119.99999743
_symmetry_Int_Tables_number   1
_chemical_formula_structural   AgI
_chemical_formula_sum   'Ag4 I4'
_cell_volume   294.95442722
_cell_formula_units_Z   4
loop_
 _symmetry_equiv_pos_site_id
 _symmetry_equiv_pos_as_xyz
  1  'x, y, z'
loop_
 _atom_site_type_symbol
 _atom_site_label
 _atom_site_symmetry_multiplicity
 _atom_site_fract_x
 _atom_site_fract_y
 _atom_site_fract_z
 _atom_site_occupancy
  Ag  Ag0  1  0.00000000  0.00000000  0.26845300  1
  Ag  Ag1  1  0.66666700  0.33333300  0.47033500  1
  Ag  Ag2  1  0.33333300  0.66666700  0.97033500  1
  Ag  Ag3  1  0.00000000  0.00000000  0.76845300  1
  I  I4  1  0.00000000  0.00000000  0.00625400  1
  I  I5  1  0.66666700  0.33333300  0.25495800  1
  I  I6  1  0.33333300  0.66666700  0.75495800  1
  I  I7  1  0.00000000  0.00000000  0.50625400  1
