# generated using pymatgen
data_Cs2Xe(BrF7)4
_symmetry_space_group_name_H-M   'P 1'
_cell_length_a   12.63639600
_cell_length_b   12.89126200
_cell_length_c   16.06277200
_cell_angle_alpha   90.00000000
_cell_angle_beta   90.00000000
_cell_angle_gamma   90.00000000
_symmetry_Int_Tables_number   1
_chemical_formula_structural   Cs2Xe(BrF7)4
_chemical_formula_sum   'Cs8 Xe4 Br16 F112'
_cell_volume   2616.61096692
_cell_formula_units_Z   4
loop_
 _symmetry_equiv_pos_site_id
 _symmetry_equiv_pos_as_xyz
  1  'x, y, z'
loop_
 _atom_site_type_symbol
 _atom_site_label
 _atom_site_symmetry_multiplicity
 _atom_site_fract_x
 _atom_site_fract_y
 _atom_site_fract_z
 _atom_site_occupancy
  Cs  Cs0  1  0.54495800  0.98527500  0.17209000  1
  Cs  Cs1  1  0.95504200  0.01472500  0.67209000  1
  Cs  Cs2  1  0.45504200  0.48527500  0.82791000  1
  Cs  Cs3  1  0.04495800  0.98527500  0.32791000  1
  Cs  Cs4  1  0.54495800  0.51472500  0.17209000  1
  Cs  Cs5  1  0.95504200  0.48527500  0.67209000  1
  Cs  Cs6  1  0.45504200  0.01472500  0.82791000  1
  Cs  Cs7  1  0.04495800  0.51472500  0.32791000  1
  Xe  Xe8  1  0.40558100  0.25000000  0.02219000  1
  Xe  Xe9  1  0.90558100  0.25000000  0.47781000  1
  Xe  Xe10  1  0.09441900  0.75000000  0.52219000  1
  Xe  Xe11  1  0.59441900  0.75000000  0.97781000  1
  Br  Br12  1  0.17380800  0.75000000  0.77102600  1
  Br  Br13  1  0.32619200  0.25000000  0.27102600  1
  Br  Br14  1  0.29402100  0.01199600  0.54715600  1
  Br  Br15  1  0.67380800  0.75000000  0.72897400  1
  Br  Br16  1  0.20597900  0.98800400  0.04715600  1
  Br  Br17  1  0.31988000  0.75000000  0.32144400  1
  Br  Br18  1  0.20597900  0.51199600  0.04715600  1
  Br  Br19  1  0.79402100  0.01199600  0.95284400  1
  Br  Br20  1  0.79402100  0.48800400  0.95284400  1
  Br  Br21  1  0.29402100  0.48800400  0.54715600  1
  Br  Br22  1  0.70597900  0.51199600  0.45284400  1
  Br  Br23  1  0.81988000  0.75000000  0.17855600  1
  Br  Br24  1  0.70597900  0.98800400  0.45284400  1
  Br  Br25  1  0.68012000  0.25000000  0.67855600  1
  Br  Br26  1  0.82619200  0.25000000  0.22897400  1
  Br  Br27  1  0.18012000  0.25000000  0.82144400  1
  F  F28  1  0.98333000  0.75000000  0.61772800  1
  F  F29  1  0.29417000  0.34791300  0.95623000  1
  F  F30  1  0.51256900  0.60988300  0.99023900  1
  F  F31  1  0.79778000  0.57420300  0.37861100  1
  F  F32  1  0.01667000  0.25000000  0.38227200  1
  F  F33  1  0.72101000  0.42759300  0.03864000  1
  F  F34  1  0.33097500  0.34858500  0.11387700  1
  F  F35  1  0.20583000  0.65208700  0.45623000  1
  F  F36  1  0.46828400  0.25000000  0.90148000  1
  F  F37  1  0.89559700  0.96967100  0.02522100  1
  F  F38  1  0.10440300  0.46967100  0.97477900  1
  F  F39  1  0.92766300  0.14947900  0.21395900  1
  F  F40  1  0.37864200  0.97155400  0.63481600  1
  F  F41  1  0.57233700  0.64947900  0.71395900  1
  F  F42  1  0.37897400  0.75000000  0.22158400  1
  F  F43  1  0.62135800  0.02844600  0.36518400  1
  F  F44  1  0.70222000  0.42579700  0.87861100  1
  F  F45  1  0.19259500  0.75000000  0.26588300  1
  F  F46  1  0.16902500  0.65141500  0.61387700  1
  F  F47  1  0.18294200  0.75000000  0.87989700  1
  F  F48  1  0.12102600  0.25000000  0.72158400  1
  F  F49  1  0.27899000  0.92759300  0.96136000  1
  F  F50  1  0.83097500  0.15141500  0.38612300  1
  F  F51  1  0.79417000  0.15208700  0.54377000  1
  F  F52  1  0.72290500  0.34999400  0.22585400  1
  F  F53  1  0.01256900  0.60988300  0.50976100  1
  F  F54  1  0.80740500  0.25000000  0.73411700  1
  F  F55  1  0.32561900  0.89148900  0.31042500  1
  F  F56  1  0.60440300  0.03032900  0.52522100  1
  F  F57  1  0.69259500  0.75000000  0.23411700  1
  F  F58  1  0.17438100  0.10851100  0.81042500  1
  F  F59  1  0.51667000  0.25000000  0.11772800  1
  F  F60  1  0.45521200  0.75000000  0.36118200  1
  F  F61  1  0.51256900  0.89011700  0.99023900  1
  F  F62  1  0.22290500  0.15000600  0.27414600  1
  F  F63  1  0.66902500  0.65141500  0.88612300  1
  F  F64  1  0.42766300  0.14947900  0.28604100  1
  F  F65  1  0.87897400  0.75000000  0.27841600  1
  F  F66  1  0.12135800  0.02844600  0.13481600  1
  F  F67  1  0.68294200  0.75000000  0.62010300  1
  F  F68  1  0.77709500  0.65000600  0.72585400  1
  F  F69  1  0.27709500  0.84999400  0.77414600  1
  F  F70  1  0.77899000  0.92759300  0.53864000  1
  F  F71  1  0.83097500  0.34858500  0.38612300  1
  F  F72  1  0.10440300  0.03032900  0.97477900  1
  F  F73  1  0.77899000  0.57240700  0.53864000  1
  F  F74  1  0.22290500  0.34999400  0.27414600  1
  F  F75  1  0.53171600  0.75000000  0.09852000  1
  F  F76  1  0.01256900  0.89011700  0.50976100  1
  F  F77  1  0.86430900  0.37018700  0.94804400  1
  F  F78  1  0.70583000  0.65208700  0.04377000  1
  F  F79  1  0.87864200  0.52844600  0.86518400  1
  F  F80  1  0.12135800  0.47155400  0.13481600  1
  F  F81  1  0.67438100  0.10851100  0.68957500  1
  F  F82  1  0.63569100  0.62981300  0.44804400  1
  F  F83  1  0.36430900  0.37018700  0.55195600  1
  F  F84  1  0.42766300  0.35052100  0.28604100  1
  F  F85  1  0.32561900  0.60851100  0.31042500  1
  F  F86  1  0.48333000  0.75000000  0.88227200  1
  F  F87  1  0.96828400  0.25000000  0.59852000  1
  F  F88  1  0.60440300  0.46967100  0.52522100  1
  F  F89  1  0.03171600  0.75000000  0.40148000  1
  F  F90  1  0.98743100  0.10988300  0.49023900  1
  F  F91  1  0.04478800  0.25000000  0.86118200  1
  F  F92  1  0.22101000  0.42759300  0.46136000  1
  F  F93  1  0.20583000  0.84791300  0.45623000  1
  F  F94  1  0.07233700  0.64947900  0.78604100  1
  F  F95  1  0.72290500  0.15000600  0.22585400  1
  F  F96  1  0.67438100  0.39148900  0.68957500  1
  F  F97  1  0.98743100  0.39011700  0.49023900  1
  F  F98  1  0.27899000  0.57240700  0.96136000  1
  F  F99  1  0.89559700  0.53032900  0.02522100  1
  F  F100  1  0.37864200  0.52844600  0.63481600  1
  F  F101  1  0.79778000  0.92579700  0.37861100  1
  F  F102  1  0.07233700  0.85052100  0.78604100  1
  F  F103  1  0.48743100  0.39011700  0.00976100  1
  F  F104  1  0.70222000  0.07420300  0.87861100  1
  F  F105  1  0.48743100  0.10988300  0.00976100  1
  F  F106  1  0.95521300  0.75000000  0.13881800  1
  F  F107  1  0.13569100  0.62981300  0.05195600  1
  F  F108  1  0.13569100  0.87018700  0.05195600  1
  F  F109  1  0.82561900  0.60851100  0.18957500  1
  F  F110  1  0.62135800  0.47155400  0.36518400  1
  F  F111  1  0.16902500  0.84858500  0.61387700  1
  F  F112  1  0.22101000  0.07240700  0.46136000  1
  F  F113  1  0.57233700  0.85052100  0.71395900  1
  F  F114  1  0.72101000  0.07240700  0.03864000  1
  F  F115  1  0.36430900  0.12981300  0.55195600  1
  F  F116  1  0.87864200  0.97155400  0.86518400  1
  F  F117  1  0.66902500  0.84858500  0.88612300  1
  F  F118  1  0.39559700  0.96967100  0.47477900  1
  F  F119  1  0.33097500  0.15141500  0.11387700  1
  F  F120  1  0.20222000  0.42579700  0.62138900  1
  F  F121  1  0.27709500  0.65000600  0.77414600  1
  F  F122  1  0.70583000  0.84791300  0.04377000  1
  F  F123  1  0.62102600  0.25000000  0.77841600  1
  F  F124  1  0.30740500  0.25000000  0.76588300  1
  F  F125  1  0.39559700  0.53032900  0.47477900  1
  F  F126  1  0.29417000  0.15208700  0.95623000  1
  F  F127  1  0.79417000  0.34791300  0.54377000  1
  F  F128  1  0.86430900  0.12981300  0.94804400  1
  F  F129  1  0.31705800  0.25000000  0.37989700  1
  F  F130  1  0.77709500  0.84999400  0.72585400  1
  F  F131  1  0.29778000  0.92579700  0.12138900  1
  F  F132  1  0.29778000  0.57420300  0.12138900  1
  F  F133  1  0.54478700  0.25000000  0.63881800  1
  F  F134  1  0.81705800  0.25000000  0.12010300  1
  F  F135  1  0.17438100  0.39148900  0.81042500  1
  F  F136  1  0.82561900  0.89148900  0.18957500  1
  F  F137  1  0.20222000  0.07420300  0.62138900  1
  F  F138  1  0.63569100  0.87018700  0.44804400  1
  F  F139  1  0.92766300  0.35052100  0.21395900  1
