# generated using pymatgen
data_ZnS
_symmetry_space_group_name_H-M   'P 1'
_cell_length_a   3.85345482
_cell_length_b   3.85345482
_cell_length_c   113.26671900
_cell_angle_alpha   90.00000000
_cell_angle_beta   90.00000000
_cell_angle_gamma   120.00001403
_symmetry_Int_Tables_number   1
_chemical_formula_structural   ZnS
_chemical_formula_sum   'Zn36 S36'
_cell_volume   1456.57694993
_cell_formula_units_Z   36
loop_
 _symmetry_equiv_pos_site_id
 _symmetry_equiv_pos_as_xyz
  1  'x, y, z'
loop_
 _atom_site_type_symbol
 _atom_site_label
 _atom_site_symmetry_multiplicity
 _atom_site_fract_x
 _atom_site_fract_y
 _atom_site_fract_z
 _atom_site_occupancy
  Zn  Zn0  1  0.00000000  0.00000000  0.16666700  1
  Zn  Zn1  1  0.33333300  0.66666700  0.11111000  1
  Zn  Zn2  1  0.33333300  0.66666700  0.91667600  1
  Zn  Zn3  1  0.66666700  0.33333300  0.55555700  1
  Zn  Zn4  1  0.00000000  0.00000000  0.41666700  1
  Zn  Zn5  1  0.33333300  0.66666700  0.36111100  1
  Zn  Zn6  1  0.66666700  0.33333300  0.13888800  1
  Zn  Zn7  1  0.66666700  0.33333300  0.97222100  1
  Zn  Zn8  1  0.66666700  0.33333300  0.72223100  1
  Zn  Zn9  1  0.00000000  0.00000000  0.94443900  1
  Zn  Zn10  1  0.00000000  0.00000000  0.83333400  1
  Zn  Zn11  1  0.66666700  0.33333300  0.30555700  1
  Zn  Zn12  1  0.33333300  0.66666700  0.27777900  1
  Zn  Zn13  1  0.66666700  0.33333300  0.80555700  1
  Zn  Zn14  1  0.33333300  0.66666700  0.02777800  1
  Zn  Zn15  1  0.33333300  0.66666700  0.61110900  1
  Zn  Zn16  1  0.66666700  0.33333300  0.88888600  1
  Zn  Zn17  1  0.00000000  0.00000000  0.58332900  1
  Zn  Zn18  1  0.33333300  0.66666700  0.19444400  1
  Zn  Zn19  1  0.33333300  0.66666700  0.69444200  1
  Zn  Zn20  1  0.66666700  0.33333300  0.22222200  1
  Zn  Zn21  1  0.66666700  0.33333300  0.05555700  1
  Zn  Zn22  1  0.00000000  0.00000000  0.50000000  1
  Zn  Zn23  1  0.33333300  0.66666700  0.44444400  1
  Zn  Zn24  1  0.33333300  0.66666700  0.86110600  1
  Zn  Zn25  1  0.00000000  0.00000000  0.08333300  1
  Zn  Zn26  1  0.66666700  0.33333300  0.38888800  1
  Zn  Zn27  1  0.66666700  0.33333300  0.47222200  1
  Zn  Zn28  1  0.33333300  0.66666700  0.52777900  1
  Zn  Zn29  1  0.00000000  0.00000000  0.33333300  1
  Zn  Zn30  1  0.33333300  0.66666700  0.77777900  1
  Zn  Zn31  1  0.00000000  0.00000000  0.00000800  1
  Zn  Zn32  1  0.66666700  0.33333300  0.66666200  1
  Zn  Zn33  1  0.00000000  0.00000000  0.63889600  1
  Zn  Zn34  1  0.00000000  0.00000000  0.75000000  1
  Zn  Zn35  1  0.00000000  0.00000000  0.25000000  1
  S  S36  1  0.33333300  0.66666700  0.88192500  1
  S  S37  1  0.33333300  0.66666700  0.63196200  1
  S  S38  1  0.00000000  0.00000000  0.27083300  1
  S  S39  1  0.33333300  0.66666700  0.79861200  1
  S  S40  1  0.66666700  0.33333300  0.07638900  1
  S  S41  1  0.00000000  0.00000000  0.10416600  1
  S  S42  1  0.33333300  0.66666700  0.46527700  1
  S  S43  1  0.00000000  0.00000000  0.96525900  1
  S  S44  1  0.33333300  0.66666700  0.21527700  1
  S  S45  1  0.33333300  0.66666700  0.13194300  1
  S  S46  1  0.66666700  0.33333300  0.99307400  1
  S  S47  1  0.00000000  0.00000000  0.52083300  1
  S  S48  1  0.00000000  0.00000000  0.77083300  1
  S  S49  1  0.00000000  0.00000000  0.60414800  1
  S  S50  1  0.66666700  0.33333300  0.24305600  1
  S  S51  1  0.66666700  0.33333300  0.74305600  1
  S  S52  1  0.66666700  0.33333300  0.68748100  1
  S  S53  1  0.66666700  0.33333300  0.32638900  1
  S  S54  1  0.33333300  0.66666700  0.04861100  1
  S  S55  1  0.00000000  0.00000000  0.85416500  1
  S  S56  1  0.66666700  0.33333300  0.90974000  1
  S  S57  1  0.00000000  0.00000000  0.43750000  1
  S  S58  1  0.33333300  0.66666700  0.54861200  1
  S  S59  1  0.66666700  0.33333300  0.49305600  1
  S  S60  1  0.66666700  0.33333300  0.82639000  1
  S  S61  1  0.66666700  0.33333300  0.15972100  1
  S  S62  1  0.33333300  0.66666700  0.71529600  1
  S  S63  1  0.00000000  0.00000000  0.65972100  1
  S  S64  1  0.33333300  0.66666700  0.38194300  1
  S  S65  1  0.66666700  0.33333300  0.40972100  1
  S  S66  1  0.00000000  0.00000000  0.18750000  1
  S  S67  1  0.66666700  0.33333300  0.57638900  1
  S  S68  1  0.00000000  0.00000000  0.35416600  1
  S  S69  1  0.00000000  0.00000000  0.02083300  1
  S  S70  1  0.33333300  0.66666700  0.93749900  1
  S  S71  1  0.33333300  0.66666700  0.29861200  1
