# generated using pymatgen
data_Mg2BN2Cl
_symmetry_space_group_name_H-M   'P 1'
_cell_length_a   6.68485400
_cell_length_b   9.83892700
_cell_length_c   10.65498000
_cell_angle_alpha   90.00000000
_cell_angle_beta   90.00000000
_cell_angle_gamma   90.00000000
_symmetry_Int_Tables_number   1
_chemical_formula_structural   Mg2BN2Cl
_chemical_formula_sum   'Mg16 B8 N16 Cl8'
_cell_volume   700.79711247
_cell_formula_units_Z   8
loop_
 _symmetry_equiv_pos_site_id
 _symmetry_equiv_pos_as_xyz
  1  'x, y, z'
loop_
 _atom_site_type_symbol
 _atom_site_label
 _atom_site_symmetry_multiplicity
 _atom_site_fract_x
 _atom_site_fract_y
 _atom_site_fract_z
 _atom_site_occupancy
  Mg  Mg0  1  0.69708000  0.95179100  0.05774800  1
  Mg  Mg1  1  0.94185100  0.24916700  0.80718100  1
  Mg  Mg2  1  0.94185100  0.25083300  0.30718100  1
  Mg  Mg3  1  0.44185100  0.24916700  0.69281900  1
  Mg  Mg4  1  0.44185100  0.25083300  0.19281900  1
  Mg  Mg5  1  0.19708000  0.95179100  0.44225200  1
  Mg  Mg6  1  0.30292000  0.45179100  0.44225200  1
  Mg  Mg7  1  0.55814900  0.75083300  0.30718100  1
  Mg  Mg8  1  0.55814900  0.74916700  0.80718100  1
  Mg  Mg9  1  0.30292000  0.04820900  0.94225200  1
  Mg  Mg10  1  0.69708000  0.54820900  0.55774800  1
  Mg  Mg11  1  0.80292000  0.04820900  0.55774800  1
  Mg  Mg12  1  0.05814900  0.74916700  0.69281900  1
  Mg  Mg13  1  0.05814900  0.75083300  0.19281900  1
  Mg  Mg14  1  0.19708000  0.54820900  0.94225200  1
  Mg  Mg15  1  0.80292000  0.45179100  0.05774800  1
  B  B16  1  0.64340800  0.03922400  0.80136700  1
  B  B17  1  0.64340800  0.46077600  0.30136700  1
  B  B18  1  0.85659200  0.96077600  0.30136700  1
  B  B19  1  0.35659200  0.96077600  0.19863300  1
  B  B20  1  0.35659200  0.53922400  0.69863300  1
  B  B21  1  0.14340800  0.46077600  0.19863300  1
  B  B22  1  0.85659200  0.53922400  0.80136700  1
  B  B23  1  0.14340800  0.03922400  0.69863300  1
  N  N24  1  0.07103100  0.94319600  0.62238900  1
  N  N25  1  0.92896900  0.44319600  0.87761100  1
  N  N26  1  0.29461800  0.64065000  0.77370000  1
  N  N27  1  0.70538200  0.35935000  0.22630000  1
  N  N28  1  0.70538200  0.14065000  0.72630000  1
  N  N29  1  0.57103100  0.94319600  0.87761100  1
  N  N30  1  0.29461800  0.85935000  0.27370000  1
  N  N31  1  0.92896900  0.05680400  0.37761100  1
  N  N32  1  0.20538200  0.14065000  0.77370000  1
  N  N33  1  0.42896900  0.05680400  0.12238900  1
  N  N34  1  0.20538200  0.35935000  0.27370000  1
  N  N35  1  0.79461800  0.85935000  0.22630000  1
  N  N36  1  0.42896900  0.44319600  0.62238900  1
  N  N37  1  0.79461800  0.64065000  0.72630000  1
  N  N38  1  0.57103100  0.55680400  0.37761100  1
  N  N39  1  0.07103100  0.55680400  0.12238900  1
  Cl  Cl40  1  0.43575600  0.15779400  0.45894200  1
  Cl  Cl41  1  0.06424400  0.65779400  0.45894200  1
  Cl  Cl42  1  0.56424400  0.65779400  0.04105800  1
  Cl  Cl43  1  0.43575600  0.34220600  0.95894200  1
  Cl  Cl44  1  0.56424400  0.84220600  0.54105800  1
  Cl  Cl45  1  0.06424400  0.84220600  0.95894200  1
  Cl  Cl46  1  0.93575600  0.34220600  0.54105800  1
  Cl  Cl47  1  0.93575600  0.15779400  0.04105800  1
