# generated using pymatgen
data_Bi6Cl7
_symmetry_space_group_name_H-M   'P 1'
_cell_length_a   8.87117900
_cell_length_b   15.42121200
_cell_length_c   23.42753100
_cell_angle_alpha   90.00000000
_cell_angle_beta   90.00000000
_cell_angle_gamma   90.00000000
_symmetry_Int_Tables_number   1
_chemical_formula_structural   Bi6Cl7
_chemical_formula_sum   'Bi48 Cl56'
_cell_volume   3204.98773001
_cell_formula_units_Z   8
loop_
 _symmetry_equiv_pos_site_id
 _symmetry_equiv_pos_as_xyz
  1  'x, y, z'
loop_
 _atom_site_type_symbol
 _atom_site_label
 _atom_site_symmetry_multiplicity
 _atom_site_fract_x
 _atom_site_fract_y
 _atom_site_fract_z
 _atom_site_occupancy
  Bi  Bi0  1  0.00000000  0.31570500  0.85746100  1
  Bi  Bi1  1  0.50000000  0.04671300  0.91269900  1
  Bi  Bi2  1  0.68383800  0.66088600  0.29962900  1
  Bi  Bi3  1  0.00000000  0.09745800  0.41110100  1
  Bi  Bi4  1  0.00000000  0.06696900  0.10283500  1
  Bi  Bi5  1  0.50000000  0.89127300  0.43182500  1
  Bi  Bi6  1  0.50000000  0.59745800  0.08889900  1
  Bi  Bi7  1  0.31214400  0.71716900  0.45024200  1
  Bi  Bi8  1  0.76348800  0.15426900  0.65261300  1
  Bi  Bi9  1  0.73651200  0.34573100  0.15261300  1
  Bi  Bi10  1  0.23651200  0.15426900  0.65261300  1
  Bi  Bi11  1  0.81616200  0.16088600  0.20037100  1
  Bi  Bi12  1  0.18383800  0.83911400  0.79962900  1
  Bi  Bi13  1  0.50000000  0.43303100  0.60283500  1
  Bi  Bi14  1  0.81214400  0.21716900  0.04975800  1
  Bi  Bi15  1  0.23651200  0.84573100  0.34738700  1
  Bi  Bi16  1  0.50000000  0.18429500  0.35746100  1
  Bi  Bi17  1  0.50000000  0.56696900  0.39716500  1
  Bi  Bi18  1  0.00000000  0.45328700  0.41269900  1
  Bi  Bi19  1  0.00000000  0.67107300  0.75915700  1
  Bi  Bi20  1  0.76348800  0.84573100  0.34738700  1
  Bi  Bi21  1  0.31214400  0.28283100  0.54975800  1
  Bi  Bi22  1  0.73651200  0.65426900  0.84738700  1
  Bi  Bi23  1  0.50000000  0.40254200  0.91110100  1
  Bi  Bi24  1  0.00000000  0.54671300  0.58730100  1
  Bi  Bi25  1  0.00000000  0.68429500  0.14253900  1
  Bi  Bi26  1  0.81214400  0.78283100  0.95024200  1
  Bi  Bi27  1  0.00000000  0.32892700  0.24084300  1
  Bi  Bi28  1  0.50000000  0.17107300  0.74084300  1
  Bi  Bi29  1  0.50000000  0.82892700  0.25915700  1
  Bi  Bi30  1  0.81616200  0.83911400  0.79962900  1
  Bi  Bi31  1  0.50000000  0.10872700  0.56817500  1
  Bi  Bi32  1  0.00000000  0.90254200  0.58889900  1
  Bi  Bi33  1  0.26348800  0.34573100  0.15261300  1
  Bi  Bi34  1  0.18785600  0.21716900  0.04975800  1
  Bi  Bi35  1  0.31616200  0.66088600  0.29962900  1
  Bi  Bi36  1  0.18785600  0.78283100  0.95024200  1
  Bi  Bi37  1  0.68383800  0.33911400  0.70037100  1
  Bi  Bi38  1  0.31616200  0.33911400  0.70037100  1
  Bi  Bi39  1  0.26348800  0.65426900  0.84738700  1
  Bi  Bi40  1  0.68785600  0.71716900  0.45024200  1
  Bi  Bi41  1  0.50000000  0.95328700  0.08730100  1
  Bi  Bi42  1  0.00000000  0.39127300  0.06817500  1
  Bi  Bi43  1  0.00000000  0.60872700  0.93182500  1
  Bi  Bi44  1  0.68785600  0.28283100  0.54975800  1
  Bi  Bi45  1  0.50000000  0.81570500  0.64253900  1
  Bi  Bi46  1  0.18383800  0.16088600  0.20037100  1
  Bi  Bi47  1  0.00000000  0.93303100  0.89716500  1
  Cl  Cl48  1  0.19406900  0.58177100  0.05856800  1
  Cl  Cl49  1  0.30744500  0.29260400  0.83630700  1
  Cl  Cl50  1  0.00000000  0.27975200  0.46259200  1
  Cl  Cl51  1  0.50000000  0.32269700  0.43944000  1
  Cl  Cl52  1  0.19255500  0.79260400  0.66369300  1
  Cl  Cl53  1  0.50000000  0.67730300  0.56056000  1
  Cl  Cl54  1  0.28542600  0.05685100  0.83605000  1
  Cl  Cl55  1  0.50000000  0.87590600  0.89134000  1
  Cl  Cl56  1  0.80593100  0.58177100  0.05856800  1
  Cl  Cl57  1  0.69406900  0.91822900  0.55856800  1
  Cl  Cl58  1  0.78355800  0.50000000  0.50000000  1
  Cl  Cl59  1  0.69406900  0.08177100  0.44143200  1
  Cl  Cl60  1  0.21457400  0.55685100  0.66395000  1
  Cl  Cl61  1  0.00000000  0.37590600  0.60866000  1
  Cl  Cl62  1  0.50000000  0.12409400  0.10866000  1
  Cl  Cl63  1  0.00000000  0.82269700  0.06056000  1
  Cl  Cl64  1  0.00000000  0.54893300  0.21023200  1
  Cl  Cl65  1  0.71457400  0.05685100  0.83605000  1
  Cl  Cl66  1  0.00000000  0.62409400  0.39134000  1
  Cl  Cl67  1  0.50000000  0.28242100  0.26352500  1
  Cl  Cl68  1  0.00000000  0.45106700  0.78976800  1
  Cl  Cl69  1  0.50000000  0.51226000  0.18687700  1
  Cl  Cl70  1  0.00000000  0.01226000  0.31312300  1
  Cl  Cl71  1  0.50000000  0.57543500  0.94798900  1
  Cl  Cl72  1  0.50000000  0.22024800  0.96259200  1
  Cl  Cl73  1  0.71457400  0.94314900  0.16395000  1
  Cl  Cl74  1  0.28355800  0.00000000  0.00000000  1
  Cl  Cl75  1  0.00000000  0.21757900  0.76352500  1
  Cl  Cl76  1  0.80593100  0.41822900  0.94143200  1
  Cl  Cl77  1  0.00000000  0.72024800  0.53740800  1
  Cl  Cl78  1  0.50000000  0.42456500  0.05201100  1
  Cl  Cl79  1  0.78542600  0.44314900  0.33605000  1
  Cl  Cl80  1  0.78542600  0.55685100  0.66395000  1
  Cl  Cl81  1  0.00000000  0.92456500  0.44798900  1
  Cl  Cl82  1  0.30593100  0.08177100  0.44143200  1
  Cl  Cl83  1  0.71644200  0.00000000  0.00000000  1
  Cl  Cl84  1  0.69255500  0.70739600  0.16369300  1
  Cl  Cl85  1  0.19255500  0.20739600  0.33630700  1
  Cl  Cl86  1  0.28542600  0.94314900  0.16395000  1
  Cl  Cl87  1  0.50000000  0.04893300  0.28976800  1
  Cl  Cl88  1  0.19406900  0.41822900  0.94143200  1
  Cl  Cl89  1  0.50000000  0.95106700  0.71023200  1
  Cl  Cl90  1  0.21457400  0.44314900  0.33605000  1
  Cl  Cl91  1  0.21644200  0.50000000  0.50000000  1
  Cl  Cl92  1  0.50000000  0.77975200  0.03740800  1
  Cl  Cl93  1  0.50000000  0.48774000  0.81312300  1
  Cl  Cl94  1  0.00000000  0.17730300  0.93944000  1
  Cl  Cl95  1  0.00000000  0.78242100  0.23647500  1
  Cl  Cl96  1  0.30593100  0.91822900  0.55856800  1
  Cl  Cl97  1  0.80744500  0.20739600  0.33630700  1
  Cl  Cl98  1  0.50000000  0.71757900  0.73647500  1
  Cl  Cl99  1  0.69255500  0.29260400  0.83630700  1
  Cl  Cl100  1  0.80744500  0.79260400  0.66369300  1
  Cl  Cl101  1  0.00000000  0.07543500  0.55201100  1
  Cl  Cl102  1  0.00000000  0.98774000  0.68687700  1
  Cl  Cl103  1  0.30744500  0.70739600  0.16369300  1
