# generated using pymatgen
data_Cu(SbO3)2
_symmetry_space_group_name_H-M   'P 1'
_cell_length_a   4.73037100
_cell_length_b   4.73037100
_cell_length_c   9.40712400
_cell_angle_alpha   90.00000000
_cell_angle_beta   90.00000000
_cell_angle_gamma   90.00000000
_symmetry_Int_Tables_number   1
_chemical_formula_structural   Cu(SbO3)2
_chemical_formula_sum   'Cu2 Sb4 O12'
_cell_volume   210.49766164
_cell_formula_units_Z   2
loop_
 _symmetry_equiv_pos_site_id
 _symmetry_equiv_pos_as_xyz
  1  'x, y, z'
loop_
 _atom_site_type_symbol
 _atom_site_label
 _atom_site_symmetry_multiplicity
 _atom_site_fract_x
 _atom_site_fract_y
 _atom_site_fract_z
 _atom_site_occupancy
  Cu  Cu0  1  0.00000000  0.00000000  0.00000000  1
  Cu  Cu1  1  0.50000000  0.50000000  0.50000000  1
  Sb  Sb2  1  0.50000000  0.50000000  0.83229600  1
  Sb  Sb3  1  0.00000000  0.00000000  0.33229600  1
  Sb  Sb4  1  0.50000000  0.50000000  0.16770400  1
  Sb  Sb5  1  0.00000000  0.00000000  0.66770400  1
  O  O6  1  0.69708000  0.69708000  0.67128100  1
  O  O7  1  0.30292000  0.30292000  0.67128100  1
  O  O8  1  0.69708000  0.69708000  0.32871900  1
  O  O9  1  0.19708000  0.80292000  0.17128100  1
  O  O10  1  0.80292000  0.19708000  0.17128100  1
  O  O11  1  0.80292000  0.19708000  0.82871900  1
  O  O12  1  0.30937400  0.30937400  0.00000000  1
  O  O13  1  0.19062600  0.80937400  0.50000000  1
  O  O14  1  0.80937400  0.19062600  0.50000000  1
  O  O15  1  0.69062600  0.69062600  0.00000000  1
  O  O16  1  0.30292000  0.30292000  0.32871900  1
  O  O17  1  0.19708000  0.80292000  0.82871900  1
