# generated using pymatgen
data_MgAl2O4
_symmetry_space_group_name_H-M   'P 1'
_cell_length_a   2.81448400
_cell_length_b   8.75890600
_cell_length_c   10.03259800
_cell_angle_alpha   90.00000000
_cell_angle_beta   90.00000000
_cell_angle_gamma   90.00000000
_symmetry_Int_Tables_number   1
_chemical_formula_structural   MgAl2O4
_chemical_formula_sum   'Mg4 Al8 O16'
_cell_volume   247.32160735
_cell_formula_units_Z   4
loop_
 _symmetry_equiv_pos_site_id
 _symmetry_equiv_pos_as_xyz
  1  'x, y, z'
loop_
 _atom_site_type_symbol
 _atom_site_label
 _atom_site_symmetry_multiplicity
 _atom_site_fract_x
 _atom_site_fract_y
 _atom_site_fract_z
 _atom_site_occupancy
  Mg  Mg0  1  0.75000000  0.74556000  0.15181800  1
  Mg  Mg1  1  0.25000000  0.25444000  0.84818200  1
  Mg  Mg2  1  0.75000000  0.24556000  0.34818200  1
  Mg  Mg3  1  0.25000000  0.75444000  0.65181800  1
  Al  Al4  1  0.25000000  0.44130300  0.61667000  1
  Al  Al5  1  0.75000000  0.55869700  0.38333000  1
  Al  Al6  1  0.25000000  0.94130300  0.88333000  1
  Al  Al7  1  0.75000000  0.05869700  0.11667000  1
  Al  Al8  1  0.75000000  0.08672300  0.60352300  1
  Al  Al9  1  0.25000000  0.91327700  0.39647700  1
  Al  Al10  1  0.75000000  0.58672300  0.89647700  1
  Al  Al11  1  0.25000000  0.41327700  0.10352300  1
  O  O12  1  0.25000000  0.41181500  0.42966500  1
  O  O13  1  0.75000000  0.58818500  0.57033500  1
  O  O14  1  0.25000000  0.91181500  0.07033500  1
  O  O15  1  0.75000000  0.08818500  0.92966500  1
  O  O16  1  0.25000000  0.53694100  0.78360100  1
  O  O17  1  0.75000000  0.46305900  0.21639900  1
  O  O18  1  0.25000000  0.03694100  0.71639900  1
  O  O19  1  0.75000000  0.96305900  0.28360100  1
  O  O20  1  0.25000000  0.11985000  0.47069100  1
  O  O21  1  0.75000000  0.88015000  0.52930900  1
  O  O22  1  0.25000000  0.61985000  0.02930900  1
  O  O23  1  0.75000000  0.38015000  0.97069100  1
  O  O24  1  0.75000000  0.29933800  0.66836500  1
  O  O25  1  0.25000000  0.70066200  0.33163500  1
  O  O26  1  0.75000000  0.79933800  0.83163500  1
  O  O27  1  0.25000000  0.20066200  0.16836500  1
