# generated using pymatgen
data_BaTiO3
_symmetry_space_group_name_H-M   'P 1'
_cell_length_a   5.78755778
_cell_length_b   5.78755778
_cell_length_c   14.09708500
_cell_angle_alpha   90.00000000
_cell_angle_beta   90.00000000
_cell_angle_gamma   119.99999749
_symmetry_Int_Tables_number   1
_chemical_formula_structural   BaTiO3
_chemical_formula_sum   'Ba6 Ti6 O18'
_cell_volume   408.93157079
_cell_formula_units_Z   6
loop_
 _symmetry_equiv_pos_site_id
 _symmetry_equiv_pos_as_xyz
  1  'x, y, z'
loop_
 _atom_site_type_symbol
 _atom_site_label
 _atom_site_symmetry_multiplicity
 _atom_site_fract_x
 _atom_site_fract_y
 _atom_site_fract_z
 _atom_site_occupancy
  Ba  Ba0  1  0.33333300  0.66666700  0.40332700  1
  Ba  Ba1  1  0.66666700  0.33333300  0.90332700  1
  Ba  Ba2  1  0.66666700  0.33333300  0.59667300  1
  Ba  Ba3  1  0.33333300  0.66666700  0.09667300  1
  Ba  Ba4  1  0.00000000  0.00000000  0.75000000  1
  Ba  Ba5  1  0.00000000  0.00000000  0.25000000  1
  Ti  Ti6  1  0.33333300  0.66666700  0.65387300  1
  Ti  Ti7  1  0.66666700  0.33333300  0.15387300  1
  Ti  Ti8  1  0.66666700  0.33333300  0.34612700  1
  Ti  Ti9  1  0.33333300  0.66666700  0.84612700  1
  Ti  Ti10  1  0.00000000  0.00000000  0.50000000  1
  Ti  Ti11  1  0.00000000  0.00000000  0.00000000  1
  O  O12  1  0.83472200  0.16527800  0.41943100  1
  O  O13  1  0.83472200  0.66944300  0.41943100  1
  O  O14  1  0.33055700  0.16527800  0.41943100  1
  O  O15  1  0.66944300  0.83472200  0.91943100  1
  O  O16  1  0.16527800  0.33055700  0.58056900  1
  O  O17  1  0.16527800  0.83472200  0.91943100  1
  O  O18  1  0.16527800  0.33055700  0.91943100  1
  O  O19  1  0.83472200  0.16527800  0.08056900  1
  O  O20  1  0.33055700  0.16527800  0.08056900  1
  O  O21  1  0.66944300  0.83472200  0.58056900  1
  O  O22  1  0.16527800  0.83472200  0.58056900  1
  O  O23  1  0.83472200  0.66944300  0.08056900  1
  O  O24  1  0.51792400  0.03584900  0.25000000  1
  O  O25  1  0.48207600  0.51792400  0.75000000  1
  O  O26  1  0.03584900  0.51792400  0.75000000  1
  O  O27  1  0.96415100  0.48207600  0.25000000  1
  O  O28  1  0.51792400  0.48207600  0.25000000  1
  O  O29  1  0.48207600  0.96415100  0.75000000  1
