# generated using pymatgen
data_La2Si2O7
_symmetry_space_group_name_H-M   'P 1'
_cell_length_a   6.91797400
_cell_length_b   6.91797400
_cell_length_c   25.19850300
_cell_angle_alpha   90.00000000
_cell_angle_beta   90.00000000
_cell_angle_gamma   90.00000000
_symmetry_Int_Tables_number   1
_chemical_formula_structural   La2Si2O7
_chemical_formula_sum   'La16 Si16 O56'
_cell_volume   1205.95913550
_cell_formula_units_Z   8
loop_
 _symmetry_equiv_pos_site_id
 _symmetry_equiv_pos_as_xyz
  1  'x, y, z'
loop_
 _atom_site_type_symbol
 _atom_site_label
 _atom_site_symmetry_multiplicity
 _atom_site_fract_x
 _atom_site_fract_y
 _atom_site_fract_z
 _atom_site_occupancy
  La  La0  1  0.82487200  0.47390600  0.10159600  1
  La  La1  1  0.52609400  0.82487200  0.35159600  1
  La  La2  1  0.47390600  0.17512800  0.85159600  1
  La  La3  1  0.17512800  0.52609400  0.60159600  1
  La  La4  1  0.22064800  0.29844300  0.99777500  1
  La  La5  1  0.70155700  0.22064800  0.24777500  1
  La  La6  1  0.29844300  0.77935200  0.74777500  1
  La  La7  1  0.77935200  0.70155700  0.49777500  1
  La  La8  1  0.22951100  0.87518200  0.10899700  1
  La  La9  1  0.12481800  0.22951100  0.35899700  1
  La  La10  1  0.87518200  0.77048900  0.85899700  1
  La  La11  1  0.77048900  0.12481800  0.60899700  1
  La  La12  1  0.34653800  0.08398100  0.49764000  1
  La  La13  1  0.91601900  0.34653800  0.74764000  1
  La  La14  1  0.08398100  0.65346200  0.24764000  1
  La  La15  1  0.65346200  0.91601900  0.99764000  1
  Si  Si16  1  0.30033000  0.39510600  0.13510600  1
  Si  Si17  1  0.60489400  0.30033000  0.38510600  1
  Si  Si18  1  0.39510600  0.69967000  0.88510600  1
  Si  Si19  1  0.69967000  0.60489400  0.63510600  1
  Si  Si20  1  0.14237500  0.76618200  0.98325900  1
  Si  Si21  1  0.23381800  0.14237500  0.23325900  1
  Si  Si22  1  0.76618200  0.85762500  0.73325900  1
  Si  Si23  1  0.85762500  0.23381800  0.48325900  1
  Si  Si24  1  0.72876200  0.37663600  0.97857900  1
  Si  Si25  1  0.62336400  0.72876200  0.22857900  1
  Si  Si26  1  0.37663600  0.27123800  0.72857900  1
  Si  Si27  1  0.27123800  0.62336400  0.47857900  1
  Si  Si28  1  0.97843900  0.29499500  0.87901000  1
  Si  Si29  1  0.70500500  0.97843900  0.12901000  1
  Si  Si30  1  0.29499500  0.02156100  0.62901000  1
  Si  Si31  1  0.02156100  0.70500500  0.37901000  1
  O  O32  1  0.13772200  0.55913200  0.15352400  1
  O  O33  1  0.44086800  0.13772200  0.40352400  1
  O  O34  1  0.55913200  0.86227800  0.90352400  1
  O  O35  1  0.86227800  0.44086800  0.65352400  1
  O  O36  1  0.18919200  0.24328000  0.09518900  1
  O  O37  1  0.75672000  0.18919200  0.34518900  1
  O  O38  1  0.24328000  0.81080800  0.84518900  1
  O  O39  1  0.81080800  0.75672000  0.59518900  1
  O  O40  1  0.48308600  0.50773700  0.11028600  1
  O  O41  1  0.49226300  0.48308600  0.36028600  1
  O  O42  1  0.50773700  0.51691400  0.86028600  1
  O  O43  1  0.51691400  0.49226300  0.61028600  1
  O  O44  1  0.27511800  0.63552500  0.94068100  1
  O  O45  1  0.36447500  0.27511800  0.19068100  1
  O  O46  1  0.63552500  0.72488200  0.69068100  1
  O  O47  1  0.72488200  0.36447500  0.44068100  1
  O  O48  1  0.10652600  0.61524000  0.03266500  1
  O  O49  1  0.38476000  0.10652600  0.28266500  1
  O  O50  1  0.61524000  0.89347400  0.78266500  1
  O  O51  1  0.89347400  0.38476000  0.53266500  1
  O  O52  1  0.27075900  0.94447900  0.00802800  1
  O  O53  1  0.86179500  0.24273800  0.01895800  1
  O  O54  1  0.05552100  0.27075900  0.25802800  1
  O  O55  1  0.72924100  0.05552100  0.50802800  1
  O  O56  1  0.15498900  0.95147100  0.20239900  1
  O  O57  1  0.04852900  0.15498900  0.45239900  1
  O  O58  1  0.95147100  0.84501100  0.95239900  1
  O  O59  1  0.84501100  0.04852900  0.70239900  1
  O  O60  1  0.54656700  0.24010700  0.95992700  1
  O  O61  1  0.75989300  0.54656700  0.20992700  1
  O  O62  1  0.24010700  0.45343300  0.70992700  1
  O  O63  1  0.45343300  0.75989300  0.45992700  1
  O  O64  1  0.21415800  0.82136100  0.65425600  1
  O  O65  1  0.17863900  0.21415800  0.90425600  1
  O  O66  1  0.82136100  0.78584200  0.40425600  1
  O  O67  1  0.78584200  0.17863900  0.15425600  1
  O  O68  1  0.45856400  0.99045600  0.58319400  1
  O  O69  1  0.00954400  0.45856400  0.83319400  1
  O  O70  1  0.99045600  0.54143600  0.33319400  1
  O  O71  1  0.54143600  0.00954400  0.08319400  1
  O  O72  1  0.12915600  0.16349800  0.60432300  1
  O  O73  1  0.83650200  0.12915600  0.85432300  1
  O  O74  1  0.16349800  0.87084400  0.35432300  1
  O  O75  1  0.87084400  0.83650200  0.10432300  1
  O  O76  1  0.12968100  0.57391500  0.42681500  1
  O  O77  1  0.42608500  0.12968100  0.67681500  1
  O  O78  1  0.57391500  0.87031900  0.17681500  1
  O  O79  1  0.87031900  0.42608500  0.92681500  1
  O  O80  1  0.33404200  0.42792700  0.50943300  1
  O  O81  1  0.57207300  0.33404200  0.75943300  1
  O  O82  1  0.42792700  0.66595800  0.25943300  1
  O  O83  1  0.66595800  0.57207300  0.00943300  1
  O  O84  1  0.13820500  0.75726200  0.51895800  1
  O  O85  1  0.24273800  0.13820500  0.76895800  1
  O  O86  1  0.75726200  0.86179500  0.26895800  1
  O  O87  1  0.94447900  0.72924100  0.75802800  1
