# generated using pymatgen
data_SiO2
_symmetry_space_group_name_H-M   'P 1'
_cell_length_a   8.51919200
_cell_length_b   14.19857100
_cell_length_c   16.04987800
_cell_angle_alpha   90.00000000
_cell_angle_beta   90.00000000
_cell_angle_gamma   90.00000000
_symmetry_Int_Tables_number   1
_chemical_formula_structural   SiO2
_chemical_formula_sum   'Si32 O64'
_cell_volume   1941.39890005
_cell_formula_units_Z   32
loop_
 _symmetry_equiv_pos_site_id
 _symmetry_equiv_pos_as_xyz
  1  'x, y, z'
loop_
 _atom_site_type_symbol
 _atom_site_label
 _atom_site_symmetry_multiplicity
 _atom_site_fract_x
 _atom_site_fract_y
 _atom_site_fract_z
 _atom_site_occupancy
  Si  Si0  1  0.82514400  0.14184400  0.15938700  1
  Si  Si1  1  0.32514400  0.35815600  0.34061300  1
  Si  Si2  1  0.17485600  0.64184400  0.84061300  1
  Si  Si3  1  0.67485600  0.85815600  0.65938700  1
  Si  Si4  1  0.17485600  0.85815600  0.84061300  1
  Si  Si5  1  0.67485600  0.64184400  0.65938700  1
  Si  Si6  1  0.82514400  0.35815600  0.15938700  1
  Si  Si7  1  0.32514400  0.14184400  0.34061300  1
  Si  Si8  1  0.55609200  0.35877600  0.03234500  1
  Si  Si9  1  0.05609200  0.14122400  0.46765500  1
  Si  Si10  1  0.44390800  0.85877600  0.96765500  1
  Si  Si11  1  0.94390800  0.64122400  0.53234500  1
  Si  Si12  1  0.44390800  0.64122400  0.96765500  1
  Si  Si13  1  0.94390800  0.85877600  0.53234500  1
  Si  Si14  1  0.55609200  0.14122400  0.03234500  1
  Si  Si15  1  0.05609200  0.35877600  0.46765500  1
  Si  Si16  1  0.11253400  0.46960700  0.22090900  1
  Si  Si17  1  0.61253400  0.03039300  0.27909100  1
  Si  Si18  1  0.88746600  0.96960700  0.77909100  1
  Si  Si19  1  0.38746600  0.53039300  0.72090900  1
  Si  Si20  1  0.88746600  0.53039300  0.77909100  1
  Si  Si21  1  0.38746600  0.96960700  0.72090900  1
  Si  Si22  1  0.11253400  0.03039300  0.22090900  1
  Si  Si23  1  0.61253400  0.46960700  0.27909100  1
  Si  Si24  1  0.40980700  0.97335200  0.12956500  1
  Si  Si25  1  0.90980700  0.52664800  0.37043500  1
  Si  Si26  1  0.59019300  0.47335200  0.87043500  1
  Si  Si27  1  0.09019300  0.02664800  0.62956500  1
  Si  Si28  1  0.59019300  0.02664800  0.87043500  1
  Si  Si29  1  0.09019300  0.47335200  0.62956500  1
  Si  Si30  1  0.40980700  0.52664800  0.12956500  1
  Si  Si31  1  0.90980700  0.97335200  0.37043500  1
  O  O32  1  0.88474000  0.25000000  0.16833100  1
  O  O33  1  0.38474000  0.25000000  0.33166900  1
  O  O34  1  0.11526000  0.75000000  0.83166900  1
  O  O35  1  0.61526000  0.75000000  0.66833100  1
  O  O36  1  0.73165700  0.12722100  0.07161600  1
  O  O37  1  0.23165700  0.37277900  0.42838400  1
  O  O38  1  0.26834300  0.62722100  0.92838400  1
  O  O39  1  0.76834300  0.87277900  0.57161600  1
  O  O40  1  0.26834300  0.87277900  0.92838400  1
  O  O41  1  0.76834300  0.62722100  0.57161600  1
  O  O42  1  0.73165700  0.37277900  0.07161600  1
  O  O43  1  0.23165700  0.12722100  0.42838400  1
  O  O44  1  0.97597400  0.07195100  0.16032100  1
  O  O45  1  0.47597400  0.42804900  0.33967900  1
  O  O46  1  0.02402600  0.57195100  0.83967900  1
  O  O47  1  0.52402600  0.92804900  0.66032100  1
  O  O48  1  0.02402600  0.92804900  0.83967900  1
  O  O49  1  0.52402600  0.57195100  0.66032100  1
  O  O50  1  0.97597400  0.42804900  0.16032100  1
  O  O51  1  0.47597400  0.07195100  0.33967900  1
  O  O52  1  0.70828000  0.11839000  0.23745100  1
  O  O53  1  0.20828000  0.38161000  0.26254900  1
  O  O54  1  0.29172000  0.61839000  0.76254900  1
  O  O55  1  0.79172000  0.88161000  0.73745100  1
  O  O56  1  0.29172000  0.88161000  0.76254900  1
  O  O57  1  0.79172000  0.61839000  0.73745100  1
  O  O58  1  0.70828000  0.38161000  0.23745100  1
  O  O59  1  0.20828000  0.11839000  0.26254900  1
  O  O60  1  0.56081100  0.38629800  0.93404900  1
  O  O61  1  0.06081100  0.11370200  0.56595100  1
  O  O62  1  0.43918900  0.88629800  0.06595100  1
  O  O63  1  0.93918900  0.61370200  0.43404900  1
  O  O64  1  0.43918900  0.61370200  0.06595100  1
  O  O65  1  0.93918900  0.88629800  0.43404900  1
  O  O66  1  0.56081100  0.11370200  0.93404900  1
  O  O67  1  0.06081100  0.38629800  0.56595100  1
  O  O68  1  0.43102600  0.42565400  0.08152300  1
  O  O69  1  0.93102600  0.07434600  0.41847700  1
  O  O70  1  0.56897400  0.92565400  0.91847700  1
  O  O71  1  0.06897400  0.57434600  0.58152300  1
  O  O72  1  0.56897400  0.57434600  0.91847700  1
  O  O73  1  0.06897400  0.92565400  0.58152300  1
  O  O74  1  0.43102600  0.07434600  0.08152300  1
  O  O75  1  0.93102600  0.42565400  0.41847700  1
  O  O76  1  0.49873900  0.25000000  0.04196500  1
  O  O77  1  0.99873900  0.25000000  0.45803500  1
  O  O78  1  0.50126100  0.75000000  0.95803500  1
  O  O79  1  0.00126100  0.75000000  0.54196500  1
  O  O80  1  0.03603400  0.53498900  0.29417600  1
  O  O81  1  0.53603400  0.96501100  0.20582400  1
  O  O82  1  0.96396600  0.03498900  0.70582400  1
  O  O83  1  0.46396600  0.46501100  0.79417600  1
  O  O84  1  0.96396600  0.46501100  0.70582400  1
  O  O85  1  0.46396600  0.03498900  0.79417600  1
  O  O86  1  0.03603400  0.96501100  0.29417600  1
  O  O87  1  0.53603400  0.53498900  0.20582400  1
  O  O88  1  0.23150100  0.53357400  0.16564200  1
  O  O89  1  0.73150100  0.96642600  0.33435800  1
  O  O90  1  0.76849900  0.03357400  0.83435800  1
  O  O91  1  0.26849900  0.46642600  0.66564200  1
  O  O92  1  0.76849900  0.46642600  0.83435800  1
  O  O93  1  0.26849900  0.03357400  0.66564200  1
  O  O94  1  0.23150100  0.96642600  0.16564200  1
  O  O95  1  0.73150100  0.53357400  0.33435800  1
