# generated using pymatgen
data_SiO2
_symmetry_space_group_name_H-M   'P 1'
_cell_length_a   13.21965900
_cell_length_b   13.21965900
_cell_length_c   5.08793100
_cell_angle_alpha   90.00000000
_cell_angle_beta   90.00000000
_cell_angle_gamma   90.00000000
_symmetry_Int_Tables_number   1
_chemical_formula_structural   SiO2
_chemical_formula_sum   'Si17 O34'
_cell_volume   889.16368778
_cell_formula_units_Z   17
loop_
 _symmetry_equiv_pos_site_id
 _symmetry_equiv_pos_as_xyz
  1  'x, y, z'
loop_
 _atom_site_type_symbol
 _atom_site_label
 _atom_site_symmetry_multiplicity
 _atom_site_fract_x
 _atom_site_fract_y
 _atom_site_fract_z
 _atom_site_occupancy
  Si  Si0  1  0.04943900  0.21526700  0.73140400  1
  Si  Si1  1  0.78473300  0.04943900  0.26859600  1
  Si  Si2  1  0.21526700  0.95056100  0.26859600  1
  Si  Si3  1  0.95056100  0.78473300  0.73140400  1
  Si  Si4  1  0.28824500  0.83134800  0.76611200  1
  Si  Si5  1  0.16865200  0.28824500  0.23388800  1
  Si  Si6  1  0.83134800  0.71175500  0.23388800  1
  Si  Si7  1  0.71175500  0.16865200  0.76611200  1
  Si  Si8  1  0.14920300  0.65017100  0.75563700  1
  Si  Si9  1  0.34982900  0.14920300  0.24436300  1
  Si  Si10  1  0.65017100  0.85079700  0.24436300  1
  Si  Si11  1  0.85079700  0.34982900  0.75563700  1
  Si  Si12  1  0.11631800  0.51732900  0.27413300  1
  Si  Si13  1  0.48267100  0.11631800  0.72586700  1
  Si  Si14  1  0.51732900  0.88368200  0.72586700  1
  Si  Si15  1  0.88368200  0.48267100  0.27413300  1
  Si  Si16  1  0.00000000  0.00000000  0.50000000  1
  O  O17  1  0.03145100  0.09461800  0.68841800  1
  O  O18  1  0.90538200  0.03145100  0.31158200  1
  O  O19  1  0.09461800  0.96854900  0.31158200  1
  O  O20  1  0.96854900  0.90538200  0.68841800  1
  O  O21  1  0.13530100  0.25762100  0.53107100  1
  O  O22  1  0.74237900  0.13530100  0.46892900  1
  O  O23  1  0.25762100  0.86469900  0.46892900  1
  O  O24  1  0.86469900  0.74237900  0.53107100  1
  O  O25  1  0.08917300  0.23539700  0.02976200  1
  O  O26  1  0.76460300  0.08917300  0.97023800  1
  O  O27  1  0.23539700  0.91082700  0.97023800  1
  O  O28  1  0.91082700  0.76460300  0.02976200  1
  O  O29  1  0.94337800  0.27413500  0.67801500  1
  O  O30  1  0.72586500  0.94337800  0.32198500  1
  O  O31  1  0.27413500  0.05662200  0.32198500  1
  O  O32  1  0.05662200  0.72586500  0.67801500  1
  O  O33  1  0.24967000  0.71650100  0.82100200  1
  O  O34  1  0.28349900  0.24967000  0.17899800  1
  O  O35  1  0.71650100  0.75033000  0.17899800  1
  O  O36  1  0.75033000  0.28349900  0.82100200  1
  O  O37  1  0.41048000  0.82984900  0.79595300  1
  O  O38  1  0.17015100  0.41048000  0.20404700  1
  O  O39  1  0.82984900  0.58952000  0.20404700  1
  O  O40  1  0.58952000  0.17015100  0.79595300  1
  O  O41  1  0.17529900  0.57414300  0.51282300  1
  O  O42  1  0.42585700  0.17529900  0.48717700  1
  O  O43  1  0.57414300  0.82470100  0.48717700  1
  O  O44  1  0.82470100  0.42585700  0.51282300  1
  O  O45  1  0.11629300  0.58643400  0.01245700  1
  O  O46  1  0.41356600  0.11629300  0.98754300  1
  O  O47  1  0.58643400  0.88370700  0.98754300  1
  O  O48  1  0.88370700  0.41356600  0.01245700  1
  O  O49  1  0.00000000  0.50000000  0.37008600  1
  O  O50  1  0.50000000  0.00000000  0.62991400  1
