# generated using pymatgen
data_SiO2
_symmetry_space_group_name_H-M   'P 1'
_cell_length_a   7.65041900
_cell_length_b   9.13354500
_cell_length_c   20.00596800
_cell_angle_alpha   90.00000000
_cell_angle_beta   90.00000000
_cell_angle_gamma   90.00000000
_symmetry_Int_Tables_number   1
_chemical_formula_structural   SiO2
_chemical_formula_sum   'Si24 O48'
_cell_volume   1397.92594077
_cell_formula_units_Z   24
loop_
 _symmetry_equiv_pos_site_id
 _symmetry_equiv_pos_as_xyz
  1  'x, y, z'
loop_
 _atom_site_type_symbol
 _atom_site_label
 _atom_site_symmetry_multiplicity
 _atom_site_fract_x
 _atom_site_fract_y
 _atom_site_fract_z
 _atom_site_occupancy
  Si  Si0  1  0.20278100  0.28974900  0.05414200  1
  Si  Si1  1  0.79721900  0.71025100  0.55414200  1
  Si  Si2  1  0.20278100  0.71025100  0.94585800  1
  Si  Si3  1  0.79721900  0.28974900  0.44585800  1
  Si  Si4  1  0.79721900  0.71025100  0.94585800  1
  Si  Si5  1  0.20278100  0.28974900  0.44585800  1
  Si  Si6  1  0.79721900  0.28974900  0.05414200  1
  Si  Si7  1  0.20278100  0.71025100  0.55414200  1
  Si  Si8  1  0.20285500  0.61797800  0.09622600  1
  Si  Si9  1  0.79714500  0.38202200  0.59622600  1
  Si  Si10  1  0.20285500  0.38202200  0.90377400  1
  Si  Si11  1  0.79714500  0.61797800  0.40377400  1
  Si  Si12  1  0.79714500  0.38202200  0.90377400  1
  Si  Si13  1  0.20285500  0.61797800  0.40377400  1
  Si  Si14  1  0.79714500  0.61797800  0.09622600  1
  Si  Si15  1  0.20285500  0.38202200  0.59622600  1
  Si  Si16  1  0.50000000  0.06526200  0.07520000  1
  Si  Si17  1  0.50000000  0.93473800  0.57520000  1
  Si  Si18  1  0.50000000  0.93473800  0.92480000  1
  Si  Si19  1  0.50000000  0.06526200  0.42480000  1
  Si  Si20  1  0.50000000  0.21675000  0.67109700  1
  Si  Si21  1  0.50000000  0.78325000  0.17109700  1
  Si  Si22  1  0.50000000  0.78325000  0.32890300  1
  Si  Si23  1  0.50000000  0.21675000  0.82890300  1
  O  O24  1  0.26163300  0.31750000  0.97661200  1
  O  O25  1  0.73836700  0.68250000  0.47661200  1
  O  O26  1  0.26163300  0.68250000  0.02338800  1
  O  O27  1  0.73836700  0.31750000  0.52338800  1
  O  O28  1  0.73836700  0.68250000  0.02338800  1
  O  O29  1  0.26163300  0.31750000  0.52338800  1
  O  O30  1  0.73836700  0.31750000  0.97661200  1
  O  O31  1  0.26163300  0.68250000  0.47661200  1
  O  O32  1  0.00000000  0.23542600  0.05672100  1
  O  O33  1  0.00000000  0.76457400  0.55672100  1
  O  O34  1  0.00000000  0.76457400  0.94327900  1
  O  O35  1  0.00000000  0.23542600  0.44327900  1
  O  O36  1  0.22554900  0.44052800  0.09681500  1
  O  O37  1  0.77445100  0.55947200  0.59681500  1
  O  O38  1  0.22554900  0.55947200  0.90318500  1
  O  O39  1  0.77445100  0.44052800  0.40318500  1
  O  O40  1  0.77445100  0.55947200  0.90318500  1
  O  O41  1  0.22554900  0.44052800  0.40318500  1
  O  O42  1  0.77445100  0.44052800  0.09681500  1
  O  O43  1  0.22554900  0.55947200  0.59681500  1
  O  O44  1  0.32526100  0.16418500  0.08660300  1
  O  O45  1  0.67473900  0.83581500  0.58660300  1
  O  O46  1  0.32526100  0.83581500  0.91339700  1
  O  O47  1  0.67473900  0.16418500  0.41339700  1
  O  O48  1  0.67473900  0.83581500  0.91339700  1
  O  O49  1  0.32526100  0.16418500  0.41339700  1
  O  O50  1  0.67473900  0.16418500  0.08660300  1
  O  O51  1  0.32526100  0.83581500  0.58660300  1
  O  O52  1  0.32568800  0.68834500  0.15353700  1
  O  O53  1  0.67431200  0.31165500  0.65353700  1
  O  O54  1  0.32568800  0.31165500  0.84646300  1
  O  O55  1  0.67431200  0.68834500  0.34646300  1
  O  O56  1  0.67431200  0.31165500  0.84646300  1
  O  O57  1  0.32568800  0.68834500  0.34646300  1
  O  O58  1  0.67431200  0.68834500  0.15353700  1
  O  O59  1  0.32568800  0.31165500  0.65353700  1
  O  O60  1  0.00000000  0.66081400  0.11131600  1
  O  O61  1  0.00000000  0.33918600  0.61131600  1
  O  O62  1  0.00000000  0.33918600  0.88868400  1
  O  O63  1  0.00000000  0.66081400  0.38868400  1
  O  O64  1  0.50000000  0.00000000  0.00000000  1
  O  O65  1  0.50000000  0.00000000  0.50000000  1
  O  O66  1  0.50000000  0.93552900  0.12980000  1
  O  O67  1  0.50000000  0.06447100  0.62980000  1
  O  O68  1  0.50000000  0.06447100  0.87020000  1
  O  O69  1  0.50000000  0.93552900  0.37020000  1
  O  O70  1  0.50000000  0.17914400  0.75000000  1
  O  O71  1  0.50000000  0.82085600  0.25000000  1
