# generated using pymatgen
data_K2CuH8(CO3)4
_symmetry_space_group_name_H-M   'P 1'
_cell_length_a   14.87618500
_cell_length_b   3.89234000
_cell_length_c   11.41313892
_cell_angle_alpha   73.48774050
_cell_angle_beta   90.00000000
_cell_angle_gamma   90.00000000
_symmetry_Int_Tables_number   1
_chemical_formula_structural   K2CuH8(CO3)4
_chemical_formula_sum   'K4 Cu2 H16 C8 O24'
_cell_volume   633.60248382
_cell_formula_units_Z   2
loop_
 _symmetry_equiv_pos_site_id
 _symmetry_equiv_pos_as_xyz
  1  'x, y, z'
loop_
 _atom_site_type_symbol
 _atom_site_label
 _atom_site_symmetry_multiplicity
 _atom_site_fract_x
 _atom_site_fract_y
 _atom_site_fract_z
 _atom_site_occupancy
  K  K0  1  0.36878200  0.26666100  0.51324000  1
  K  K1  1  0.63121800  0.73333900  0.48676000  1
  K  K2  1  0.13121800  0.26666100  0.01324000  1
  K  K3  1  0.86878200  0.73333900  0.98676000  1
  Cu  Cu4  1  0.50000000  0.50000000  0.00000000  1
  Cu  Cu5  1  0.00000000  0.50000000  0.50000000  1
  H  H6  1  0.12539500  0.02512200  0.76236200  1
  H  H7  1  0.31111700  0.87640500  0.02171400  1
  H  H8  1  0.72827000  0.01492600  0.70194800  1
  H  H9  1  0.22827000  0.98507400  0.79805200  1
  H  H10  1  0.77173000  0.01492600  0.20194800  1
  H  H11  1  0.18888300  0.87640500  0.52171400  1
  H  H12  1  0.68888300  0.12359500  0.97828600  1
  H  H13  1  0.71427300  0.32566500  0.84578800  1
  H  H14  1  0.62539500  0.97487800  0.73763800  1
  H  H15  1  0.27173000  0.98507400  0.29805200  1
  H  H16  1  0.21427300  0.67433500  0.65421200  1
  H  H17  1  0.87460500  0.97487800  0.23763800  1
  H  H18  1  0.81111700  0.12359500  0.47828600  1
  H  H19  1  0.37460500  0.02512200  0.26236200  1
  H  H20  1  0.78572700  0.32566500  0.34578800  1
  H  H21  1  0.28572700  0.67433500  0.15421200  1
  C  C22  1  0.59811300  0.70440100  0.17407800  1
  C  C23  1  0.97477800  0.44106200  0.74474900  1
  C  C24  1  0.47477800  0.55893800  0.75525100  1
  C  C25  1  0.09811300  0.29559900  0.32592200  1
  C  C26  1  0.40188700  0.29559900  0.82592200  1
  C  C27  1  0.02522200  0.55893800  0.25525100  1
  C  C28  1  0.52522200  0.44106200  0.24474900  1
  C  C29  1  0.90188700  0.70440100  0.67407800  1
  O  O30  1  0.52885800  0.67614000  0.82439100  1
  O  O31  1  0.15469800  0.17004300  0.26893800  1
  O  O32  1  0.84530200  0.82995700  0.73106200  1
  O  O33  1  0.90646800  0.77880300  0.55612700  1
  O  O34  1  0.97854100  0.35627800  0.85815900  1
  O  O35  1  0.32957400  0.85631600  0.31022600  1
  O  O36  1  0.76302000  0.27090500  0.42969400  1
  O  O37  1  0.47854100  0.64372200  0.64184100  1
  O  O38  1  0.82957400  0.14368400  0.18977400  1
  O  O39  1  0.47114200  0.32386000  0.17560900  1
  O  O40  1  0.67042600  0.14368400  0.68977400  1
  O  O41  1  0.02145900  0.64372200  0.14184100  1
  O  O42  1  0.23698000  0.72909500  0.57030600  1
  O  O43  1  0.17042600  0.85631600  0.81022600  1
  O  O44  1  0.26302000  0.72909500  0.07030600  1
  O  O45  1  0.09353200  0.22119700  0.44387300  1
  O  O46  1  0.34530200  0.17004300  0.76893800  1
  O  O47  1  0.73698000  0.27090500  0.92969400  1
  O  O48  1  0.02885800  0.32386000  0.67560900  1
  O  O49  1  0.59353200  0.77880300  0.05612700  1
  O  O50  1  0.65469800  0.82995700  0.23106200  1
  O  O51  1  0.97114200  0.67614000  0.32439100  1
  O  O52  1  0.52145900  0.35627800  0.35815900  1
  O  O53  1  0.40646800  0.22119700  0.94387300  1
