# generated using pymatgen
data_ZnH8C4(N4Cl)2
_symmetry_space_group_name_H-M   'P 1'
_cell_length_a   15.00677900
_cell_length_b   5.00074600
_cell_length_c   15.73268851
_cell_angle_alpha   86.26480670
_cell_angle_beta   90.00000000
_cell_angle_gamma   90.00000000
_symmetry_Int_Tables_number   1
_chemical_formula_structural   ZnH8C4(N4Cl)2
_chemical_formula_sum   'Zn4 H32 C16 N32 Cl8'
_cell_volume   1178.15305594
_cell_formula_units_Z   4
loop_
 _symmetry_equiv_pos_site_id
 _symmetry_equiv_pos_as_xyz
  1  'x, y, z'
loop_
 _atom_site_type_symbol
 _atom_site_label
 _atom_site_symmetry_multiplicity
 _atom_site_fract_x
 _atom_site_fract_y
 _atom_site_fract_z
 _atom_site_occupancy
  Zn  Zn0  1  0.23386100  0.57244400  0.08583900  1
  Zn  Zn1  1  0.76613900  0.42755600  0.91416100  1
  Zn  Zn2  1  0.26613900  0.57244400  0.58583900  1
  Zn  Zn3  1  0.73386100  0.42755600  0.41416100  1
  H  H4  1  0.34285700  0.36758800  0.78485900  1
  H  H5  1  0.45925900  0.68680500  0.41503000  1
  H  H6  1  0.69869200  0.88085300  0.14165300  1
  H  H7  1  0.03360200  0.08749700  0.13886000  1
  H  H8  1  0.27424500  0.84834000  0.28311800  1
  H  H9  1  0.15714300  0.36758800  0.28485900  1
  H  H10  1  0.99066000  0.59520600  0.42084600  1
  H  H11  1  0.95925900  0.31319500  0.08497000  1
  H  H12  1  0.54074100  0.31319500  0.58497000  1
  H  H13  1  0.46639800  0.08749700  0.63886000  1
  H  H14  1  0.72575500  0.15166000  0.71688200  1
  H  H15  1  0.19869200  0.11914700  0.35834700  1
  H  H16  1  0.84285700  0.63241200  0.71514100  1
  H  H17  1  0.53360200  0.91250300  0.36114000  1
  H  H18  1  0.54119600  0.36448500  0.18013700  1
  H  H19  1  0.18527500  0.65433600  0.87255500  1
  H  H20  1  0.95880400  0.36448500  0.68013700  1
  H  H21  1  0.49066000  0.40479400  0.07915400  1
  H  H22  1  0.81472500  0.34566400  0.12744500  1
  H  H23  1  0.30130800  0.11914700  0.85834700  1
  H  H24  1  0.77424500  0.15166000  0.21688200  1
  H  H25  1  0.65714300  0.63241200  0.21514100  1
  H  H26  1  0.68527500  0.34566400  0.62744500  1
  H  H27  1  0.80130800  0.88085300  0.64165300  1
  H  H28  1  0.00934000  0.40479400  0.57915400  1
  H  H29  1  0.04119600  0.63551500  0.31986300  1
  H  H30  1  0.04074100  0.68680500  0.91503000  1
  H  H31  1  0.22575500  0.84834000  0.78311800  1
  H  H32  1  0.31472500  0.65433600  0.37255500  1
  H  H33  1  0.50934000  0.59520600  0.92084600  1
  H  H34  1  0.45880400  0.63551500  0.81986300  1
  H  H35  1  0.96639800  0.91250300  0.86114000  1
  C  C36  1  0.36282700  0.01336700  0.00173500  1
  C  C37  1  0.59377800  0.66171500  0.09967800  1
  C  C38  1  0.40622200  0.33828500  0.90032200  1
  C  C39  1  0.90603600  0.08980500  0.18530900  1
  C  C40  1  0.86149500  0.78557300  0.29292900  1
  C  C41  1  0.13850500  0.21442700  0.70707100  1
  C  C42  1  0.86282700  0.98663300  0.49826500  1
  C  C43  1  0.63717300  0.98663300  0.99826500  1
  C  C44  1  0.40603600  0.91019500  0.31469100  1
  C  C45  1  0.09377800  0.33828500  0.40032200  1
  C  C46  1  0.90622200  0.66171500  0.59967800  1
  C  C47  1  0.59396400  0.08980500  0.68530900  1
  C  C48  1  0.63850500  0.78557300  0.79292900  1
  C  C49  1  0.36149500  0.21442700  0.20707100  1
  C  C50  1  0.13717300  0.01336700  0.50173500  1
  C  C51  1  0.09396400  0.91019500  0.81469100  1
  N  N52  1  0.84584100  0.73288700  0.65679900  1
  N  N53  1  0.15415900  0.26711300  0.34320100  1
  N  N54  1  0.96218200  0.46132500  0.62127900  1
  N  N55  1  0.57629100  0.89764200  0.74714500  1
  N  N56  1  0.07629100  0.10235800  0.75285500  1
  N  N57  1  0.65415900  0.73288700  0.15679900  1
  N  N58  1  0.68949200  0.66637400  0.83821600  1
  N  N59  1  0.02821100  0.82776600  0.86693100  1
  N  N60  1  0.67538200  0.19964600  0.67498200  1
  N  N61  1  0.46218200  0.53867500  0.87872100  1
  N  N62  1  0.67953400  0.17376100  0.97322000  1
  N  N63  1  0.31050800  0.33362600  0.16178400  1
  N  N64  1  0.92370900  0.89764200  0.24714500  1
  N  N65  1  0.41317500  0.21562800  0.97905700  1
  N  N66  1  0.34584100  0.26711300  0.84320100  1
  N  N67  1  0.42370900  0.10235800  0.25285500  1
  N  N68  1  0.32461800  0.80035400  0.32501800  1
  N  N69  1  0.08682500  0.21562800  0.47905700  1
  N  N70  1  0.32046600  0.82623900  0.02678000  1
  N  N71  1  0.97178900  0.17223400  0.13306900  1
  N  N72  1  0.47178900  0.82776600  0.36693100  1
  N  N73  1  0.53781800  0.46132500  0.12127900  1
  N  N74  1  0.58682500  0.78437200  0.02094300  1
  N  N75  1  0.81050800  0.66637400  0.33821600  1
  N  N76  1  0.18949200  0.33362600  0.66178400  1
  N  N77  1  0.03781800  0.53867500  0.37872100  1
  N  N78  1  0.52821100  0.17223400  0.63306900  1
  N  N79  1  0.17953400  0.82623900  0.52678000  1
  N  N80  1  0.91317500  0.78437200  0.52094300  1
  N  N81  1  0.82046600  0.17376100  0.47322000  1
  N  N82  1  0.82461800  0.19964600  0.17498200  1
  N  N83  1  0.17538200  0.80035400  0.82501800  1
  Cl  Cl84  1  0.35121900  0.77509900  0.68590200  1
  Cl  Cl85  1  0.85121900  0.22490100  0.81409800  1
  Cl  Cl86  1  0.14878100  0.77509900  0.18590200  1
  Cl  Cl87  1  0.14930900  0.35793800  0.99169400  1
  Cl  Cl88  1  0.64878100  0.22490100  0.31409800  1
  Cl  Cl89  1  0.35069100  0.35793800  0.49169400  1
  Cl  Cl90  1  0.64930900  0.64206200  0.50830600  1
  Cl  Cl91  1  0.85069100  0.64206200  0.00830600  1
