# generated using pymatgen
data_NiH4C2(S2N)2
_symmetry_space_group_name_H-M   'P 1'
_cell_length_a   13.11622400
_cell_length_b   7.23177700
_cell_length_c   11.16378433
_cell_angle_alpha   49.63602439
_cell_angle_beta   90.00000000
_cell_angle_gamma   90.00000000
_symmetry_Int_Tables_number   1
_chemical_formula_structural   NiH4C2(S2N)2
_chemical_formula_sum   'Ni4 H16 C8 S16 N8'
_cell_volume   806.84346773
_cell_formula_units_Z   4
loop_
 _symmetry_equiv_pos_site_id
 _symmetry_equiv_pos_as_xyz
  1  'x, y, z'
loop_
 _atom_site_type_symbol
 _atom_site_label
 _atom_site_symmetry_multiplicity
 _atom_site_fract_x
 _atom_site_fract_y
 _atom_site_fract_z
 _atom_site_occupancy
  Ni  Ni0  1  0.12854200  0.11510200  0.02341700  1
  Ni  Ni1  1  0.62854200  0.88489800  0.47658300  1
  Ni  Ni2  1  0.87145800  0.88489800  0.97658300  1
  Ni  Ni3  1  0.37145800  0.11510200  0.52341700  1
  H  H4  1  0.23323100  0.61812500  0.02252900  1
  H  H5  1  0.73323100  0.38187500  0.47747100  1
  H  H6  1  0.49529100  0.63906300  0.03221300  1
  H  H7  1  0.91678600  0.87585600  0.43529300  1
  H  H8  1  0.00470900  0.63906300  0.53221300  1
  H  H9  1  0.85305700  0.62519200  0.87814000  1
  H  H10  1  0.64694300  0.62519200  0.37814000  1
  H  H11  1  0.41678600  0.12414400  0.06470700  1
  H  H12  1  0.99529100  0.36093700  0.46778700  1
  H  H13  1  0.76676900  0.38187500  0.97747100  1
  H  H14  1  0.26676900  0.61812500  0.52252900  1
  H  H15  1  0.50470900  0.36093700  0.96778700  1
  H  H16  1  0.58321400  0.87585600  0.93529300  1
  H  H17  1  0.35305700  0.37480800  0.62186000  1
  H  H18  1  0.08321400  0.12414400  0.56470700  1
  H  H19  1  0.14694300  0.37480800  0.12186000  1
  C  C20  1  0.47362000  0.89710600  0.79433100  1
  C  C21  1  0.76162600  0.65188800  0.24309300  1
  C  C22  1  0.52638000  0.10289400  0.20566900  1
  C  C23  1  0.23837400  0.34811200  0.75690700  1
  C  C24  1  0.26162600  0.34811200  0.25690700  1
  C  C25  1  0.02638000  0.89710600  0.29433100  1
  C  C26  1  0.97362000  0.10289400  0.70566900  1
  C  C27  1  0.73837400  0.65188800  0.74309300  1
  S  S28  1  0.13046000  0.45786200  0.77807000  1
  S  S29  1  0.86954000  0.54213800  0.22193000  1
  S  S30  1  0.63046000  0.54213800  0.72193000  1
  S  S31  1  0.73042100  0.92603200  0.06427800  1
  S  S32  1  0.99247600  0.16527500  0.11550500  1
  S  S33  1  0.50752400  0.16527500  0.61550500  1
  S  S34  1  0.36954000  0.45786200  0.27807000  1
  S  S35  1  0.63085800  0.21980200  0.22784200  1
  S  S36  1  0.26957900  0.07396800  0.93572200  1
  S  S37  1  0.13085800  0.78019800  0.27215800  1
  S  S38  1  0.23042100  0.07396800  0.43572200  1
  S  S39  1  0.36914200  0.78019800  0.77215800  1
  S  S40  1  0.86914200  0.21980200  0.72784200  1
  S  S41  1  0.76957900  0.92603200  0.56427800  1
  S  S42  1  0.49247600  0.83472500  0.38449500  1
  S  S43  1  0.00752400  0.83472500  0.88449500  1
  N  N44  1  0.02109400  0.20298200  0.57109800  1
  N  N45  1  0.71039400  0.54550300  0.37508900  1
  N  N46  1  0.28960600  0.45449700  0.62491100  1
  N  N47  1  0.52109400  0.79701800  0.92890200  1
  N  N48  1  0.21039400  0.45449700  0.12491100  1
  N  N49  1  0.47890600  0.20298200  0.07109800  1
  N  N50  1  0.78960600  0.54550300  0.87508900  1
  N  N51  1  0.97890600  0.79701800  0.42890200  1
