# generated using pymatgen
data_InH6(CO3)3
_symmetry_space_group_name_H-M   'P 1'
_cell_length_a   6.86976800
_cell_length_b   10.28600000
_cell_length_c   11.21543691
_cell_angle_alpha   83.88418059
_cell_angle_beta   90.00000000
_cell_angle_gamma   90.00000000
_symmetry_Int_Tables_number   1
_chemical_formula_structural   InH6(CO3)3
_chemical_formula_sum   'In4 H24 C12 O36'
_cell_volume   787.99954838
_cell_formula_units_Z   4
loop_
 _symmetry_equiv_pos_site_id
 _symmetry_equiv_pos_as_xyz
  1  'x, y, z'
loop_
 _atom_site_type_symbol
 _atom_site_label
 _atom_site_symmetry_multiplicity
 _atom_site_fract_x
 _atom_site_fract_y
 _atom_site_fract_z
 _atom_site_occupancy
  In  In0  1  0.65386300  0.23829900  0.47392800  1
  In  In1  1  0.84613700  0.23829900  0.97392800  1
  In  In2  1  0.15386300  0.76170100  0.02607200  1
  In  In3  1  0.34613700  0.76170100  0.52607200  1
  H  H4  1  0.92075600  0.38293000  0.58465600  1
  H  H5  1  0.84895300  0.51499200  0.71371800  1
  H  H6  1  0.58402700  0.59057000  0.08704200  1
  H  H7  1  0.65104700  0.51499200  0.21371800  1
  H  H8  1  0.47591200  0.23749700  0.08154800  1
  H  H9  1  0.68931800  0.90224700  0.54119600  1
  H  H10  1  0.34895300  0.48500800  0.78628200  1
  H  H11  1  0.18931800  0.09775300  0.95880400  1
  H  H12  1  0.52408800  0.76250300  0.91845200  1
  H  H13  1  0.08402700  0.40943000  0.41295800  1
  H  H14  1  0.37818700  0.14388100  0.32438200  1
  H  H15  1  0.87818700  0.85611900  0.17561800  1
  H  H16  1  0.91597300  0.59057000  0.58704200  1
  H  H17  1  0.02408800  0.23749700  0.58154800  1
  H  H18  1  0.41597300  0.40943000  0.91295800  1
  H  H19  1  0.42075600  0.61707000  0.91534400  1
  H  H20  1  0.12181300  0.14388100  0.82438200  1
  H  H21  1  0.57924400  0.38293000  0.08465600  1
  H  H22  1  0.07924400  0.61707000  0.41534400  1
  H  H23  1  0.15104700  0.48500800  0.28628200  1
  H  H24  1  0.31068200  0.09775300  0.45880400  1
  H  H25  1  0.97591200  0.76250300  0.41845200  1
  H  H26  1  0.81068200  0.90224700  0.04119600  1
  H  H27  1  0.62181300  0.85611900  0.67561800  1
  C  C28  1  0.33375700  0.99191400  0.15215300  1
  C  C29  1  0.83375700  0.00808600  0.34784700  1
  C  C30  1  0.44561300  0.47205700  0.55729400  1
  C  C31  1  0.66624300  0.00808600  0.84784700  1
  C  C32  1  0.55438700  0.52794300  0.44270600  1
  C  C33  1  0.82421300  0.12829300  0.25096500  1
  C  C34  1  0.16624300  0.99191400  0.65215300  1
  C  C35  1  0.05438700  0.47205700  0.05729400  1
  C  C36  1  0.94561300  0.52794300  0.94270600  1
  C  C37  1  0.17578700  0.87170700  0.74903500  1
  C  C38  1  0.67578700  0.12829300  0.75096500  1
  C  C39  1  0.32421300  0.87170700  0.24903500  1
  O  O40  1  0.77765800  0.03118500  0.45253500  1
  O  O41  1  0.39050600  0.10084300  0.17974400  1
  O  O42  1  0.74200100  0.23420900  0.78317400  1
  O  O43  1  0.86987500  0.82687500  0.09337000  1
  O  O44  1  0.36987500  0.17312500  0.40663000  1
  O  O45  1  0.88049800  0.10942800  0.14685400  1
  O  O46  1  0.85014600  0.44806300  0.88606400  1
  O  O47  1  0.38049800  0.89057200  0.35314600  1
  O  O48  1  0.95708500  0.64894400  0.91134600  1
  O  O49  1  0.60949400  0.89915700  0.82025600  1
  O  O50  1  0.22234200  0.96881500  0.54746500  1
  O  O51  1  0.84849700  0.51303300  0.62602600  1
  O  O52  1  0.35014600  0.55193700  0.61393600  1
  O  O53  1  0.14985400  0.55193700  0.11393600  1
  O  O54  1  0.64985400  0.44806300  0.38606400  1
  O  O55  1  0.61950200  0.10942800  0.64685400  1
  O  O56  1  0.75799900  0.23420900  0.28317400  1
  O  O57  1  0.13012500  0.17312500  0.90663000  1
  O  O58  1  0.44609500  0.69380100  0.96625100  1
  O  O59  1  0.34849700  0.48696700  0.87397400  1
  O  O60  1  0.05390500  0.69380100  0.46625100  1
  O  O61  1  0.89050600  0.89915700  0.32025600  1
  O  O62  1  0.55390500  0.30619900  0.03374900  1
  O  O63  1  0.65150300  0.51303300  0.12602600  1
  O  O64  1  0.72234200  0.03118500  0.95253500  1
  O  O65  1  0.27765800  0.96881500  0.04746500  1
  O  O66  1  0.10949400  0.10084300  0.67974400  1
  O  O67  1  0.63012500  0.82687500  0.59337000  1
  O  O68  1  0.25799900  0.76579100  0.21682600  1
  O  O69  1  0.11950200  0.89057200  0.85314600  1
  O  O70  1  0.24200100  0.76579100  0.71682600  1
  O  O71  1  0.94609500  0.30619900  0.53374900  1
  O  O72  1  0.45708500  0.35105600  0.58865400  1
  O  O73  1  0.04291500  0.35105600  0.08865400  1
  O  O74  1  0.54291500  0.64894400  0.41134600  1
  O  O75  1  0.15150300  0.48696700  0.37397400  1
