# generated using pymatgen
data_H5C2NO4
_symmetry_space_group_name_H-M   'P 1'
_cell_length_a   13.68956800
_cell_length_b   4.39621600
_cell_length_c   7.82547630
_cell_angle_alpha   78.24305769
_cell_angle_beta   90.00000000
_cell_angle_gamma   90.00000000
_symmetry_Int_Tables_number   1
_chemical_formula_structural   H5C2NO4
_chemical_formula_sum   'H20 C8 N4 O16'
_cell_volume   461.07487944
_cell_formula_units_Z   4
loop_
 _symmetry_equiv_pos_site_id
 _symmetry_equiv_pos_as_xyz
  1  'x, y, z'
loop_
 _atom_site_type_symbol
 _atom_site_label
 _atom_site_symmetry_multiplicity
 _atom_site_fract_x
 _atom_site_fract_y
 _atom_site_fract_z
 _atom_site_occupancy
  H  H0  1  0.41519700  0.29956800  0.83477100  1
  H  H1  1  0.26916200  0.85778700  0.48619200  1
  H  H2  1  0.08480300  0.29956800  0.33477100  1
  H  H3  1  0.73083800  0.14221300  0.51380800  1
  H  H4  1  0.87383800  0.77963800  0.85058000  1
  H  H5  1  0.04158200  0.98940000  0.26889800  1
  H  H6  1  0.62616200  0.77963800  0.35058000  1
  H  H7  1  0.45841800  0.98940000  0.76889800  1
  H  H8  1  0.48978100  0.35195400  0.66438400  1
  H  H9  1  0.54158200  0.01060000  0.23110200  1
  H  H10  1  0.58480300  0.70043200  0.16522900  1
  H  H11  1  0.23083800  0.85778700  0.98619200  1
  H  H12  1  0.76916200  0.14221300  0.01380800  1
  H  H13  1  0.98978100  0.64804600  0.83561600  1
  H  H14  1  0.01021900  0.35195400  0.16438400  1
  H  H15  1  0.12616200  0.22036200  0.14942000  1
  H  H16  1  0.91519700  0.70043200  0.66522900  1
  H  H17  1  0.37383800  0.22036200  0.64942000  1
  H  H18  1  0.95841800  0.01060000  0.73110200  1
  H  H19  1  0.51021900  0.64804600  0.33561600  1
  C  C20  1  0.65650100  0.69142500  0.71667400  1
  C  C21  1  0.34349900  0.30857500  0.28332600  1
  C  C22  1  0.17225100  0.58802900  0.62496300  1
  C  C23  1  0.84349900  0.69142500  0.21667400  1
  C  C24  1  0.15650100  0.30857500  0.78332600  1
  C  C25  1  0.67225100  0.41197100  0.87503700  1
  C  C26  1  0.32774900  0.58802900  0.12496300  1
  C  C27  1  0.82774900  0.41197100  0.37503700  1
  N  N28  1  0.56577800  0.78651300  0.27254000  1
  N  N29  1  0.93422200  0.78651300  0.77254000  1
  N  N30  1  0.43422200  0.21348700  0.72746000  1
  N  N31  1  0.06577800  0.21348700  0.22746000  1
  O  O32  1  0.76507600  0.33889400  0.91214200  1
  O  O33  1  0.26890800  0.14232400  0.33512300  1
  O  O34  1  0.92822400  0.72453700  0.15338500  1
  O  O35  1  0.76890800  0.85767600  0.16487700  1
  O  O36  1  0.23492400  0.66110600  0.08785800  1
  O  O37  1  0.26507600  0.66110600  0.58785800  1
  O  O38  1  0.89796500  0.27265700  0.45236400  1
  O  O39  1  0.60203500  0.27265700  0.95236400  1
  O  O40  1  0.73492400  0.33889400  0.41214200  1
  O  O41  1  0.42822400  0.27546300  0.34661500  1
  O  O42  1  0.23109200  0.14232400  0.83512300  1
  O  O43  1  0.10203500  0.72734300  0.54763600  1
  O  O44  1  0.57177600  0.72453700  0.65338500  1
  O  O45  1  0.07177600  0.27546300  0.84661500  1
  O  O46  1  0.39796500  0.72734300  0.04763600  1
  O  O47  1  0.73109200  0.85767600  0.66487700  1
