# generated using pymatgen
data_Fe9Co7
_symmetry_space_group_name_H-M   'P 1'
_cell_length_a   5.69971800
_cell_length_b   5.69971800
_cell_length_c   5.69971800
_cell_angle_alpha   90.00000000
_cell_angle_beta   90.00000000
_cell_angle_gamma   90.00000000
_symmetry_Int_Tables_number   1
_chemical_formula_structural   Fe9Co7
_chemical_formula_sum   'Fe9 Co7'
_cell_volume   185.16551482
_cell_formula_units_Z   1
loop_
 _symmetry_equiv_pos_site_id
 _symmetry_equiv_pos_as_xyz
  1  'x, y, z'
loop_
 _atom_site_type_symbol
 _atom_site_label
 _atom_site_symmetry_multiplicity
 _atom_site_fract_x
 _atom_site_fract_y
 _atom_site_fract_z
 _atom_site_occupancy
  Fe  Fe0  1  0.74999300  0.74999300  0.74999300  1
  Fe  Fe1  1  0.25000700  0.74999300  0.74999300  1
  Fe  Fe2  1  0.25000700  0.25000700  0.25000700  1
  Fe  Fe3  1  0.74999300  0.25000700  0.74999300  1
  Fe  Fe4  1  0.74999300  0.74999300  0.25000700  1
  Fe  Fe5  1  0.74999300  0.25000700  0.25000700  1
  Fe  Fe6  1  0.25000700  0.25000700  0.74999300  1
  Fe  Fe7  1  0.25000700  0.74999300  0.25000700  1
  Fe  Fe8  1  0.00000000  0.00000000  0.00000000  1
  Co  Co9  1  0.00000000  0.50000000  0.50000000  1
  Co  Co10  1  0.50000000  0.00000000  0.00000000  1
  Co  Co11  1  0.50000000  0.50000000  0.00000000  1
  Co  Co12  1  0.50000000  0.00000000  0.50000000  1
  Co  Co13  1  0.00000000  0.00000000  0.50000000  1
  Co  Co14  1  0.50000000  0.50000000  0.50000000  1
  Co  Co15  1  0.00000000  0.50000000  0.00000000  1
