# generated using pymatgen
data_H3SNO3
_symmetry_space_group_name_H-M   'P 1'
_cell_length_a   8.38270900
_cell_length_b   8.38791100
_cell_length_c   9.30148800
_cell_angle_alpha   90.00000000
_cell_angle_beta   90.00000000
_cell_angle_gamma   90.00000000
_symmetry_Int_Tables_number   1
_chemical_formula_structural   H3SNO3
_chemical_formula_sum   'H24 S8 N8 O24'
_cell_volume   654.01940475
_cell_formula_units_Z   8
loop_
 _symmetry_equiv_pos_site_id
 _symmetry_equiv_pos_as_xyz
  1  'x, y, z'
loop_
 _atom_site_type_symbol
 _atom_site_label
 _atom_site_symmetry_multiplicity
 _atom_site_fract_x
 _atom_site_fract_y
 _atom_site_fract_z
 _atom_site_occupancy
  H  H0  1  0.22698300  0.07126400  0.41104300  1
  H  H1  1  0.72698300  0.42873600  0.41104300  1
  H  H2  1  0.86528500  0.05655200  0.14643800  1
  H  H3  1  0.21899100  0.91513800  0.01586200  1
  H  H4  1  0.78100900  0.08486200  0.98413800  1
  H  H5  1  0.13471500  0.44344800  0.64643800  1
  H  H6  1  0.27301700  0.57126400  0.58895700  1
  H  H7  1  0.36528500  0.44344800  0.14643800  1
  H  H8  1  0.77301700  0.42873600  0.91104300  1
  H  H9  1  0.28100900  0.91513800  0.51586200  1
  H  H10  1  0.77301700  0.92873600  0.58895700  1
  H  H11  1  0.72698300  0.92873600  0.08895700  1
  H  H12  1  0.27301700  0.07126400  0.91104300  1
  H  H13  1  0.71899100  0.08486200  0.48413800  1
  H  H14  1  0.36528500  0.94344800  0.35356200  1
  H  H15  1  0.13471500  0.94344800  0.85356200  1
  H  H16  1  0.71899100  0.58486200  0.01586200  1
  H  H17  1  0.63471500  0.55655200  0.85356200  1
  H  H18  1  0.63471500  0.05655200  0.64643800  1
  H  H19  1  0.21899100  0.41513800  0.48413800  1
  H  H20  1  0.22698300  0.57126400  0.08895700  1
  H  H21  1  0.28100900  0.41513800  0.98413800  1
  H  H22  1  0.78100900  0.58486200  0.51586200  1
  H  H23  1  0.86528500  0.55655200  0.35356200  1
  S  S24  1  0.10036500  0.33297200  0.17534000  1
  S  S25  1  0.89963500  0.66702800  0.82466000  1
  S  S26  1  0.39963500  0.83297200  0.82466000  1
  S  S27  1  0.60036500  0.16702800  0.17534000  1
  S  S28  1  0.39963500  0.33297200  0.67534000  1
  S  S29  1  0.89963500  0.16702800  0.67534000  1
  S  S30  1  0.10036500  0.83297200  0.32466000  1
  S  S31  1  0.60036500  0.66702800  0.32466000  1
  N  N32  1  0.76016000  0.54724900  0.41120500  1
  N  N33  1  0.23984000  0.95275100  0.91120500  1
  N  N34  1  0.26016000  0.95275100  0.41120500  1
  N  N35  1  0.23984000  0.45275100  0.58879500  1
  N  N36  1  0.76016000  0.04724900  0.08879500  1
  N  N37  1  0.73984000  0.54724900  0.91120500  1
  N  N38  1  0.73984000  0.04724900  0.58879500  1
  N  N39  1  0.26016000  0.45275100  0.08879500  1
  O  O40  1  0.96830100  0.44405600  0.17770600  1
  O  O41  1  0.82869000  0.70419200  0.68583300  1
  O  O42  1  0.03169900  0.55594400  0.82229400  1
  O  O43  1  0.08449700  0.69961100  0.42280500  1
  O  O44  1  0.58449700  0.30038900  0.07719500  1
  O  O45  1  0.08449700  0.19961100  0.07719500  1
  O  O46  1  0.82869000  0.20419200  0.81416700  1
  O  O47  1  0.32869000  0.79580800  0.68583300  1
  O  O48  1  0.67131000  0.20419200  0.31416700  1
  O  O49  1  0.53169900  0.94405600  0.82229400  1
  O  O50  1  0.41550300  0.69961100  0.92280500  1
  O  O51  1  0.32869000  0.29580800  0.81416700  1
  O  O52  1  0.46830100  0.55594400  0.32229400  1
  O  O53  1  0.91550300  0.30038900  0.57719500  1
  O  O54  1  0.67131000  0.70419200  0.18583300  1
  O  O55  1  0.58449700  0.80038900  0.42280500  1
  O  O56  1  0.41550300  0.19961100  0.57719500  1
  O  O57  1  0.17131000  0.29580800  0.31416700  1
  O  O58  1  0.96830100  0.94405600  0.32229400  1
  O  O59  1  0.53169900  0.44405600  0.67770600  1
  O  O60  1  0.46830100  0.05594400  0.17770600  1
  O  O61  1  0.03169900  0.05594400  0.67770600  1
  O  O62  1  0.91550300  0.80038900  0.92280500  1
  O  O63  1  0.17131000  0.79580800  0.18583300  1
