# generated using pymatgen
data_Nd3SeBrN2
_symmetry_space_group_name_H-M   'P 1'
_cell_length_a   4.13532500
_cell_length_b   12.85339100
_cell_length_c   13.31319000
_cell_angle_alpha   90.00000000
_cell_angle_beta   90.00000000
_cell_angle_gamma   90.00000000
_symmetry_Int_Tables_number   1
_chemical_formula_structural   Nd3SeBrN2
_chemical_formula_sum   'Nd12 Se4 Br4 N8'
_cell_volume   707.63531092
_cell_formula_units_Z   4
loop_
 _symmetry_equiv_pos_site_id
 _symmetry_equiv_pos_as_xyz
  1  'x, y, z'
loop_
 _atom_site_type_symbol
 _atom_site_label
 _atom_site_symmetry_multiplicity
 _atom_site_fract_x
 _atom_site_fract_y
 _atom_site_fract_z
 _atom_site_occupancy
  Nd  Nd0  1  0.25000000  0.88641800  0.41060300  1
  Nd  Nd1  1  0.75000000  0.38717100  0.47997400  1
  Nd  Nd2  1  0.25000000  0.61282900  0.52002600  1
  Nd  Nd3  1  0.75000000  0.84462100  0.80241700  1
  Nd  Nd4  1  0.75000000  0.38641800  0.08939700  1
  Nd  Nd5  1  0.25000000  0.15537900  0.19758300  1
  Nd  Nd6  1  0.25000000  0.34462100  0.69758300  1
  Nd  Nd7  1  0.75000000  0.11282900  0.97997400  1
  Nd  Nd8  1  0.75000000  0.11358200  0.58939700  1
  Nd  Nd9  1  0.25000000  0.61358200  0.91060300  1
  Nd  Nd10  1  0.75000000  0.65537900  0.30241700  1
  Nd  Nd11  1  0.25000000  0.88717100  0.02002600  1
  Se  Se12  1  0.75000000  0.64114100  0.06461800  1
  Se  Se13  1  0.25000000  0.14114100  0.43538200  1
  Se  Se14  1  0.75000000  0.85885900  0.56461800  1
  Se  Se15  1  0.25000000  0.35885900  0.93538200  1
  Br  Br16  1  0.25000000  0.43505500  0.25696300  1
  Br  Br17  1  0.75000000  0.93505500  0.24303700  1
  Br  Br18  1  0.75000000  0.56494500  0.74303700  1
  Br  Br19  1  0.25000000  0.06494500  0.75696300  1
  N  N20  1  0.75000000  0.93424000  0.94613100  1
  N  N21  1  0.25000000  0.43424000  0.55386900  1
  N  N22  1  0.75000000  0.22525400  0.14170600  1
  N  N23  1  0.25000000  0.77474600  0.85829400  1
  N  N24  1  0.25000000  0.06576000  0.05386900  1
  N  N25  1  0.75000000  0.27474600  0.64170600  1
  N  N26  1  0.25000000  0.72525400  0.35829400  1
  N  N27  1  0.75000000  0.56576000  0.44613100  1
