# generated using pymatgen
data_La2P3H7O11
_symmetry_space_group_name_H-M   'P 1'
_cell_length_a   8.14945300
_cell_length_b   8.83799352
_cell_length_c   9.63797569
_cell_angle_alpha   63.01698915
_cell_angle_beta   67.33425858
_cell_angle_gamma   72.10942709
_symmetry_Int_Tables_number   1
_chemical_formula_structural   La2P3H7O11
_chemical_formula_sum   'La4 P6 H14 O22'
_cell_volume   563.38816715
_cell_formula_units_Z   2
loop_
 _symmetry_equiv_pos_site_id
 _symmetry_equiv_pos_as_xyz
  1  'x, y, z'
loop_
 _atom_site_type_symbol
 _atom_site_label
 _atom_site_symmetry_multiplicity
 _atom_site_fract_x
 _atom_site_fract_y
 _atom_site_fract_z
 _atom_site_occupancy
  La  La0  1  0.40264300  0.44181200  0.35216800  1
  La  La1  1  0.16251700  0.75863500  0.00237800  1
  La  La2  1  0.83748300  0.24136500  0.99762200  1
  La  La3  1  0.59735700  0.55818800  0.64783200  1
  P  P4  1  0.01615300  0.17247600  0.65506900  1
  P  P5  1  0.98384700  0.82752400  0.34493100  1
  P  P6  1  0.83380100  0.46947900  0.25954900  1
  P  P7  1  0.16619900  0.53052100  0.74045100  1
  P  P8  1  0.60585300  0.70686000  0.90090300  1
  P  P9  1  0.39414700  0.29314000  0.09909700  1
  H  H10  1  0.67237000  0.11375300  0.47444800  1
  H  H11  1  0.47498600  0.07864000  0.56931700  1
  H  H12  1  0.71603900  0.82736800  0.85338600  1
  H  H13  1  0.62800600  0.95678200  0.20691300  1
  H  H14  1  0.94744300  0.09230200  0.59572000  1
  H  H15  1  0.32763000  0.88624700  0.52555200  1
  H  H16  1  0.42257500  0.13544800  0.86829400  1
  H  H17  1  0.52501400  0.92136000  0.43068300  1
  H  H18  1  0.03291900  0.62691100  0.66125900  1
  H  H19  1  0.96708100  0.37308900  0.33874100  1
  H  H20  1  0.57742500  0.86455200  0.13170600  1
  H  H21  1  0.28396100  0.17263200  0.14661400  1
  H  H22  1  0.05255700  0.90769800  0.40428000  1
  H  H23  1  0.37199400  0.04321800  0.79308700  1
  O  O24  1  0.47901000  0.77952800  0.79063300  1
  O  O25  1  0.96061900  0.96236700  0.17800500  1
  O  O26  1  0.21986200  0.65158300  0.78554500  1
  O  O27  1  0.90963900  0.62523900  0.11586500  1
  O  O28  1  0.33505600  0.47854200  0.61382500  1
  O  O29  1  0.49401600  0.67165400  0.07945600  1
  O  O30  1  0.80607000  0.77443200  0.47084800  1
  O  O31  1  0.64164500  0.95671800  0.10256900  1
  O  O32  1  0.44275900  0.84310300  0.46231800  1
  O  O33  1  0.35835500  0.04328200  0.89743100  1
  O  O34  1  0.78013800  0.34841700  0.21445500  1
  O  O35  1  0.55724100  0.15689700  0.53768200  1
  O  O36  1  0.27222300  0.45159800  0.13299500  1
  O  O37  1  0.13189200  0.67804300  0.31329200  1
  O  O38  1  0.72777700  0.54840200  0.86700500  1
  O  O39  1  0.50598400  0.32834600  0.92054400  1
  O  O40  1  0.52099000  0.22047200  0.20936700  1
  O  O41  1  0.09036100  0.37476100  0.88413500  1
  O  O42  1  0.66494400  0.52145800  0.38617500  1
  O  O43  1  0.86810800  0.32195700  0.68670800  1
  O  O44  1  0.03938100  0.03763300  0.82199500  1
  O  O45  1  0.19393000  0.22556800  0.52915200  1
