# generated using pymatgen
data_RbBa2N15
_symmetry_space_group_name_H-M   'P 1'
_cell_length_a   5.70691400
_cell_length_b   8.79118400
_cell_length_c   14.75440559
_cell_angle_alpha   53.60769939
_cell_angle_beta   90.00000000
_cell_angle_gamma   90.00000000
_symmetry_Int_Tables_number   1
_chemical_formula_structural   RbBa2N15
_chemical_formula_sum   'Rb2 Ba4 N30'
_cell_volume   595.87068121
_cell_formula_units_Z   2
loop_
 _symmetry_equiv_pos_site_id
 _symmetry_equiv_pos_as_xyz
  1  'x, y, z'
loop_
 _atom_site_type_symbol
 _atom_site_label
 _atom_site_symmetry_multiplicity
 _atom_site_fract_x
 _atom_site_fract_y
 _atom_site_fract_z
 _atom_site_occupancy
  Rb  Rb0  1  0.57321800  0.00000000  0.75000000  1
  Rb  Rb1  1  0.42678200  0.00000000  0.25000000  1
  Ba  Ba2  1  0.99673700  0.68743400  0.55068100  1
  Ba  Ba3  1  0.00326300  0.31256600  0.44931900  1
  Ba  Ba4  1  0.00326300  0.68743400  0.05068100  1
  Ba  Ba5  1  0.99673700  0.31256600  0.94931900  1
  N  N6  1  0.12051800  0.76335900  0.82405600  1
  N  N7  1  0.05867600  0.16289200  0.76985500  1
  N  N8  1  0.50375500  0.50000000  0.75000000  1
  N  N9  1  0.67529400  0.57127500  0.94873500  1
  N  N10  1  0.70412400  0.50000000  0.25000000  1
  N  N11  1  0.94132400  0.83710800  0.23014500  1
  N  N12  1  0.71086900  0.50000000  0.75000000  1
  N  N13  1  0.87948200  0.23664100  0.17594400  1
  N  N14  1  0.50299200  0.86596100  0.49887100  1
  N  N15  1  0.00420900  0.08805100  0.36435500  1
  N  N16  1  0.32470600  0.57127500  0.44873500  1
  N  N17  1  0.67529400  0.42872500  0.55126500  1
  N  N18  1  0.49700800  0.86596100  0.99887100  1
  N  N19  1  0.32470600  0.42872500  0.05126500  1
  N  N20  1  0.28913100  0.50000000  0.25000000  1
  N  N21  1  0.05867600  0.83710800  0.73014500  1
  N  N22  1  0.94132400  0.16289200  0.26985500  1
  N  N23  1  0.50000000  0.00000000  0.50000000  1
  N  N24  1  0.12051800  0.23664100  0.67594400  1
  N  N25  1  0.87948200  0.76335900  0.32405600  1
  N  N26  1  0.29587600  0.50000000  0.75000000  1
  N  N27  1  0.49624500  0.50000000  0.25000000  1
  N  N28  1  0.00420900  0.91194900  0.13564500  1
  N  N29  1  0.49700800  0.13403900  0.50112900  1
  N  N30  1  0.99579100  0.08805100  0.86435500  1
  N  N31  1  0.50000000  0.50000000  0.00000000  1
  N  N32  1  0.99579100  0.91194900  0.63564500  1
  N  N33  1  0.50000000  0.50000000  0.50000000  1
  N  N34  1  0.50299200  0.13403900  0.00112900  1
  N  N35  1  0.50000000  0.00000000  0.00000000  1
