# generated using pymatgen
data_C
_symmetry_space_group_name_H-M   'P 1'
_cell_length_a   2.46724402
_cell_length_b   2.46724402
_cell_length_c   31.98297100
_cell_angle_alpha   90.00000000
_cell_angle_beta   90.00000000
_cell_angle_gamma   120.00000043
_symmetry_Int_Tables_number   1
_chemical_formula_structural   C
_chemical_formula_sum   C12
_cell_volume   168.60623971
_cell_formula_units_Z   12
loop_
 _symmetry_equiv_pos_site_id
 _symmetry_equiv_pos_as_xyz
  1  'x, y, z'
loop_
 _atom_site_type_symbol
 _atom_site_label
 _atom_site_symmetry_multiplicity
 _atom_site_fract_x
 _atom_site_fract_y
 _atom_site_fract_z
 _atom_site_occupancy
  C  C0  1  0.66666700  0.33333300  0.63310000  1
  C  C1  1  0.66666700  0.33333300  0.13309700  1
  C  C2  1  0.66666700  0.33333300  0.36690300  1
  C  C3  1  0.66666700  0.33333300  0.86690000  1
  C  C4  1  0.00000000  0.00000000  0.25000000  1
  C  C5  1  0.33333300  0.66666700  0.86690300  1
  C  C6  1  0.00000000  0.00000000  0.75000000  1
  C  C7  1  0.66666700  0.33333300  0.25000000  1
  C  C8  1  0.33333300  0.66666700  0.36690000  1
  C  C9  1  0.33333300  0.66666700  0.75000000  1
  C  C10  1  0.33333300  0.66666700  0.13310000  1
  C  C11  1  0.33333300  0.66666700  0.63309700  1
