# generated using pymatgen
data_TmMn6(GaSn2)2
_symmetry_space_group_name_H-M   'P 1'
_cell_length_a   5.35961000
_cell_length_b   5.35960964
_cell_length_c   8.77953200
_cell_angle_alpha   90.00000000
_cell_angle_beta   90.00000000
_cell_angle_gamma   120.00000221
_symmetry_Int_Tables_number   1
_chemical_formula_structural   TmMn6(GaSn2)2
_chemical_formula_sum   'Tm1 Mn6 Ga2 Sn4'
_cell_volume   218.40789670
_cell_formula_units_Z   1
loop_
 _symmetry_equiv_pos_site_id
 _symmetry_equiv_pos_as_xyz
  1  'x, y, z'
loop_
 _atom_site_type_symbol
 _atom_site_label
 _atom_site_symmetry_multiplicity
 _atom_site_fract_x
 _atom_site_fract_y
 _atom_site_fract_z
 _atom_site_occupancy
  Tm  Tm0  1  0.00000000  0.00000000  0.00000000  1
  Mn  Mn1  1  0.00000000  0.50000000  0.76450600  1
  Mn  Mn2  1  0.50000000  0.00000000  0.23549400  1
  Mn  Mn3  1  0.50000000  0.50000000  0.23549400  1
  Mn  Mn4  1  0.50000000  0.50000000  0.76450600  1
  Mn  Mn5  1  0.50000000  0.00000000  0.76450600  1
  Mn  Mn6  1  0.00000000  0.50000000  0.23549400  1
  Ga  Ga7  1  0.33333300  0.66666700  0.00000000  1
  Ga  Ga8  1  0.66666700  0.33333300  0.00000000  1
  Sn  Sn9  1  0.00000000  0.00000000  0.66850300  1
  Sn  Sn10  1  0.00000000  0.00000000  0.33149700  1
  Sn  Sn11  1  0.66666700  0.33333300  0.50000000  1
  Sn  Sn12  1  0.33333300  0.66666700  0.50000000  1
