# generated using pymatgen
data_Ag2S
_symmetry_space_group_name_H-M   'P 1'
_cell_length_a   7.40179500
_cell_length_b   4.36113600
_cell_length_c   8.14957718
_cell_angle_alpha   69.61127955
_cell_angle_beta   90.00000000
_cell_angle_gamma   90.00000000
_symmetry_Int_Tables_number   1
_chemical_formula_structural   Ag2S
_chemical_formula_sum   'Ag8 S4'
_cell_volume   246.58906749
_cell_formula_units_Z   4
loop_
 _symmetry_equiv_pos_site_id
 _symmetry_equiv_pos_as_xyz
  1  'x, y, z'
loop_
 _atom_site_type_symbol
 _atom_site_label
 _atom_site_symmetry_multiplicity
 _atom_site_fract_x
 _atom_site_fract_y
 _atom_site_fract_z
 _atom_site_occupancy
  Ag  Ag0  1  0.50881300  0.47745700  0.79358700  1
  Ag  Ag1  1  0.49118700  0.52254300  0.20641300  1
  Ag  Ag2  1  0.69302900  0.85532900  0.44290900  1
  Ag  Ag3  1  0.00881300  0.52254300  0.70641300  1
  Ag  Ag4  1  0.99118700  0.47745700  0.29358700  1
  Ag  Ag5  1  0.30697100  0.14467100  0.55709100  1
  Ag  Ag6  1  0.80697100  0.85532900  0.94290900  1
  Ag  Ag7  1  0.19302900  0.14467100  0.05709100  1
  S  S8  1  0.76334400  0.26030900  0.14053900  1
  S  S9  1  0.26334400  0.73969100  0.35946100  1
  S  S10  1  0.23665600  0.73969100  0.85946100  1
  S  S11  1  0.73665600  0.26030900  0.64053900  1
