# generated using pymatgen
data_LaGeAu
_symmetry_space_group_name_H-M   'P 1'
_cell_length_a   4.55606745
_cell_length_b   4.55606745
_cell_length_c   8.19178200
_cell_angle_alpha   90.00000000
_cell_angle_beta   90.00000000
_cell_angle_gamma   119.99999209
_symmetry_Int_Tables_number   1
_chemical_formula_structural   LaGeAu
_chemical_formula_sum   'La2 Ge2 Au2'
_cell_volume   147.26154191
_cell_formula_units_Z   2
loop_
 _symmetry_equiv_pos_site_id
 _symmetry_equiv_pos_as_xyz
  1  'x, y, z'
loop_
 _atom_site_type_symbol
 _atom_site_label
 _atom_site_symmetry_multiplicity
 _atom_site_fract_x
 _atom_site_fract_y
 _atom_site_fract_z
 _atom_site_occupancy
  La  La0  1  0.00000000  0.00000000  0.00940300  1
  La  La1  1  0.00000000  0.00000000  0.50940300  1
  Ge  Ge2  1  0.33333300  0.66666700  0.77814400  1
  Ge  Ge3  1  0.66666700  0.33333300  0.27814400  1
  Au  Au4  1  0.66666700  0.33333300  0.74935300  1
  Au  Au5  1  0.33333300  0.66666700  0.24935300  1
