# generated using pymatgen
data_K2Zn2(SO4)3
_symmetry_space_group_name_H-M   'P 1'
_cell_length_a   10.08748200
_cell_length_b   10.08748200
_cell_length_c   10.08748200
_cell_angle_alpha   90.00000000
_cell_angle_beta   90.00000000
_cell_angle_gamma   90.00000000
_symmetry_Int_Tables_number   1
_chemical_formula_structural   K2Zn2(SO4)3
_chemical_formula_sum   'K8 Zn8 S12 O48'
_cell_volume   1026.47486252
_cell_formula_units_Z   4
loop_
 _symmetry_equiv_pos_site_id
 _symmetry_equiv_pos_as_xyz
  1  'x, y, z'
loop_
 _atom_site_type_symbol
 _atom_site_label
 _atom_site_symmetry_multiplicity
 _atom_site_fract_x
 _atom_site_fract_y
 _atom_site_fract_z
 _atom_site_occupancy
  K  K0  1  0.68511800  0.18511800  0.31488200  1
  K  K1  1  0.31488200  0.68511800  0.18511800  1
  K  K2  1  0.94942300  0.55057700  0.44942300  1
  K  K3  1  0.18511800  0.31488200  0.68511800  1
  K  K4  1  0.05057700  0.05057700  0.05057700  1
  K  K5  1  0.44942300  0.94942300  0.55057700  1
  K  K6  1  0.55057700  0.44942300  0.94942300  1
  K  K7  1  0.81488200  0.81488200  0.81488200  1
  Zn  Zn8  1  0.33448300  0.33448300  0.33448300  1
  Zn  Zn9  1  0.16551700  0.66551700  0.83448300  1
  Zn  Zn10  1  0.83448300  0.16551700  0.66551700  1
  Zn  Zn11  1  0.66551700  0.83448300  0.16551700  1
  Zn  Zn12  1  0.59119500  0.59119500  0.59119500  1
  Zn  Zn13  1  0.09119500  0.90880500  0.40880500  1
  Zn  Zn14  1  0.40880500  0.09119500  0.90880500  1
  Zn  Zn15  1  0.90880500  0.40880500  0.09119500  1
  S  S16  1  0.28050000  0.62349300  0.51884900  1
  S  S17  1  0.78050000  0.87650700  0.48115100  1
  S  S18  1  0.71950000  0.12349300  0.98115100  1
  S  S19  1  0.87650700  0.48115100  0.78050000  1
  S  S20  1  0.98115100  0.71950000  0.12349300  1
  S  S21  1  0.48115100  0.78050000  0.87650700  1
  S  S22  1  0.62349300  0.51884900  0.28050000  1
  S  S23  1  0.51884900  0.28050000  0.62349300  1
  S  S24  1  0.12349300  0.98115100  0.71950000  1
  S  S25  1  0.21950000  0.37650700  0.01884900  1
  S  S26  1  0.01884900  0.21950000  0.37650700  1
  S  S27  1  0.37650700  0.01884900  0.21950000  1
  O  O28  1  0.25019600  0.59413200  0.65959300  1
  O  O29  1  0.75019600  0.90586800  0.34040700  1
  O  O30  1  0.74980400  0.09413200  0.84040700  1
  O  O31  1  0.90586800  0.34040700  0.75019600  1
  O  O32  1  0.84040700  0.74980400  0.09413200  1
  O  O33  1  0.34040700  0.75019600  0.90586800  1
  O  O34  1  0.59413200  0.65959300  0.25019600  1
  O  O35  1  0.65959300  0.25019600  0.59413200  1
  O  O36  1  0.09413200  0.84040700  0.74980400  1
  O  O37  1  0.40586800  0.15959300  0.24980400  1
  O  O38  1  0.15959300  0.24980400  0.40586800  1
  O  O39  1  0.24980400  0.40586800  0.15959300  1
  O  O40  1  0.25998000  0.49938100  0.44134700  1
  O  O41  1  0.75998000  0.00061900  0.55865300  1
  O  O42  1  0.74002000  0.99938100  0.05865300  1
  O  O43  1  0.00061900  0.55865300  0.75998000  1
  O  O44  1  0.05865300  0.74002000  0.99938100  1
  O  O45  1  0.55865300  0.75998000  0.00061900  1
  O  O46  1  0.99479800  0.57960400  0.17200300  1
  O  O47  1  0.49938100  0.44134700  0.25998000  1
  O  O48  1  0.99938100  0.05865300  0.74002000  1
  O  O49  1  0.50061900  0.94134700  0.24002000  1
  O  O50  1  0.94134700  0.24002000  0.50061900  1
  O  O51  1  0.24002000  0.50061900  0.94134700  1
  O  O52  1  0.42039600  0.67200300  0.50520200  1
  O  O53  1  0.92039600  0.82799700  0.49479800  1
  O  O54  1  0.57960400  0.17200300  0.99479800  1
  O  O55  1  0.82799700  0.49479800  0.92039600  1
  O  O56  1  0.30971200  0.27501200  0.96233600  1
  O  O57  1  0.96233600  0.30971200  0.27501200  1
  O  O58  1  0.27501200  0.96233600  0.30971200  1
  O  O59  1  0.22498800  0.03766400  0.80971200  1
  O  O60  1  0.46233600  0.19028800  0.72498800  1
  O  O61  1  0.72498800  0.46233600  0.19028800  1
  O  O62  1  0.53766400  0.69028800  0.77501200  1
  O  O63  1  0.03766400  0.80971200  0.22498800  1
  O  O64  1  0.77501200  0.53766400  0.69028800  1
  O  O65  1  0.80971200  0.22498800  0.03766400  1
  O  O66  1  0.69028800  0.77501200  0.53766400  1
  O  O67  1  0.19028800  0.72498800  0.46233600  1
  O  O68  1  0.07960400  0.32799700  0.00520200  1
  O  O69  1  0.00520200  0.07960400  0.32799700  1
  O  O70  1  0.32799700  0.00520200  0.07960400  1
  O  O71  1  0.17200300  0.99479800  0.57960400  1
  O  O72  1  0.50520200  0.42039600  0.67200300  1
  O  O73  1  0.67200300  0.50520200  0.42039600  1
  O  O74  1  0.49479800  0.92039600  0.82799700  1
  O  O75  1  0.44134700  0.25998000  0.49938100  1
