# generated using pymatgen
data_Ba2Pd(OF)2
_symmetry_space_group_name_H-M   'P 1'
_cell_length_a   7.70863682
_cell_length_b   7.70863682
_cell_length_c   7.70863682
_cell_angle_alpha   148.19681778
_cell_angle_beta   148.19681778
_cell_angle_gamma   45.59490684
_symmetry_Int_Tables_number   1
_chemical_formula_structural   Ba2Pd(OF)2
_chemical_formula_sum   'Ba2 Pd1 O2 F2'
_cell_volume   126.80133524
_cell_formula_units_Z   1
loop_
 _symmetry_equiv_pos_site_id
 _symmetry_equiv_pos_as_xyz
  1  'x, y, z'
loop_
 _atom_site_type_symbol
 _atom_site_label
 _atom_site_symmetry_multiplicity
 _atom_site_fract_x
 _atom_site_fract_y
 _atom_site_fract_z
 _atom_site_occupancy
  Ba  Ba0  1  0.63500800  0.63500800  0.00000000  1
  Ba  Ba1  1  0.36499200  0.36499200  0.00000000  1
  Pd  Pd2  1  0.00000000  0.00000000  0.00000000  1
  O  O3  1  0.00000000  0.50000000  0.50000000  1
  O  O4  1  0.50000000  0.00000000  0.50000000  1
  F  F5  1  0.25000000  0.75000000  0.50000000  1
  F  F6  1  0.75000000  0.25000000  0.50000000  1
