# generated using pymatgen
data_NaO2
_symmetry_space_group_name_H-M   'P 1'
_cell_length_a   5.52287400
_cell_length_b   5.52287400
_cell_length_c   5.52287400
_cell_angle_alpha   90.00000000
_cell_angle_beta   90.00000000
_cell_angle_gamma   90.00000000
_symmetry_Int_Tables_number   1
_chemical_formula_structural   NaO2
_chemical_formula_sum   'Na4 O8'
_cell_volume   168.45946060
_cell_formula_units_Z   4
loop_
 _symmetry_equiv_pos_site_id
 _symmetry_equiv_pos_as_xyz
  1  'x, y, z'
loop_
 _atom_site_type_symbol
 _atom_site_label
 _atom_site_symmetry_multiplicity
 _atom_site_fract_x
 _atom_site_fract_y
 _atom_site_fract_z
 _atom_site_occupancy
  Na  Na0  1  0.00000000  0.50000000  0.50000000  1
  Na  Na1  1  0.50000000  0.50000000  0.00000000  1
  Na  Na2  1  0.50000000  0.00000000  0.50000000  1
  Na  Na3  1  0.00000000  0.00000000  0.00000000  1
  O  O4  1  0.42922500  0.07077500  0.92922500  1
  O  O5  1  0.07077500  0.92922500  0.42922500  1
  O  O6  1  0.92922500  0.42922500  0.07077500  1
  O  O7  1  0.57077500  0.57077500  0.57077500  1
  O  O8  1  0.42922500  0.42922500  0.42922500  1
  O  O9  1  0.07077500  0.57077500  0.92922500  1
  O  O10  1  0.92922500  0.07077500  0.57077500  1
  O  O11  1  0.57077500  0.92922500  0.07077500  1
