# generated using pymatgen
data_Rb2ZnCl4
_symmetry_space_group_name_H-M   'P 1'
_cell_length_a   7.40291400
_cell_length_b   9.38026300
_cell_length_c   12.95774100
_cell_angle_alpha   90.00000000
_cell_angle_beta   90.00000000
_cell_angle_gamma   90.00000000
_symmetry_Int_Tables_number   1
_chemical_formula_structural   Rb2ZnCl4
_chemical_formula_sum   'Rb8 Zn4 Cl16'
_cell_volume   899.80212466
_cell_formula_units_Z   4
loop_
 _symmetry_equiv_pos_site_id
 _symmetry_equiv_pos_as_xyz
  1  'x, y, z'
loop_
 _atom_site_type_symbol
 _atom_site_label
 _atom_site_symmetry_multiplicity
 _atom_site_fract_x
 _atom_site_fract_y
 _atom_site_fract_z
 _atom_site_occupancy
  Rb  Rb0  1  0.74765100  0.87117300  0.90728600  1
  Rb  Rb1  1  0.24825000  0.48717000  0.82055500  1
  Rb  Rb2  1  0.74825000  0.51283000  0.17944500  1
  Rb  Rb3  1  0.24825000  0.98717000  0.67944500  1
  Rb  Rb4  1  0.24765100  0.62882700  0.40728600  1
  Rb  Rb5  1  0.24765100  0.12882700  0.09271400  1
  Rb  Rb6  1  0.74765100  0.37117300  0.59271400  1
  Rb  Rb7  1  0.74825000  0.01283000  0.32055500  1
  Zn  Zn8  1  0.75010100  0.27693600  0.92163400  1
  Zn  Zn9  1  0.75010100  0.77693600  0.57836600  1
  Zn  Zn10  1  0.25010100  0.22306400  0.42163400  1
  Zn  Zn11  1  0.25010100  0.72306400  0.07836600  1
  Cl  Cl12  1  0.50039000  0.81505300  0.15663900  1
  Cl  Cl13  1  0.00344000  0.80900700  0.16392300  1
  Cl  Cl14  1  0.75236600  0.01819600  0.58023500  1
  Cl  Cl15  1  0.00039000  0.68494700  0.65663900  1
  Cl  Cl16  1  0.00344000  0.30900700  0.33607700  1
  Cl  Cl17  1  0.24320200  0.82212600  0.91642700  1
  Cl  Cl18  1  0.75236600  0.51819600  0.91976500  1
  Cl  Cl19  1  0.74320200  0.67787400  0.41642700  1
  Cl  Cl20  1  0.25236600  0.48180400  0.08023500  1
  Cl  Cl21  1  0.50344000  0.69099300  0.66392300  1
  Cl  Cl22  1  0.74320200  0.17787400  0.08357300  1
  Cl  Cl23  1  0.25236600  0.98180400  0.41976500  1
  Cl  Cl24  1  0.24320200  0.32212600  0.58357300  1
  Cl  Cl25  1  0.50344000  0.19099300  0.83607700  1
  Cl  Cl26  1  0.00039000  0.18494700  0.84336100  1
  Cl  Cl27  1  0.50039000  0.31505300  0.34336100  1
