# generated using pymatgen
data_K2UI5
_symmetry_space_group_name_H-M   'P 1'
_cell_length_a   9.30861800
_cell_length_b   9.87296500
_cell_length_c   14.72448100
_cell_angle_alpha   90.00000000
_cell_angle_beta   90.00000000
_cell_angle_gamma   90.00000000
_symmetry_Int_Tables_number   1
_chemical_formula_structural   K2UI5
_chemical_formula_sum   'K8 U4 I20'
_cell_volume   1353.23369127
_cell_formula_units_Z   4
loop_
 _symmetry_equiv_pos_site_id
 _symmetry_equiv_pos_as_xyz
  1  'x, y, z'
loop_
 _atom_site_type_symbol
 _atom_site_label
 _atom_site_symmetry_multiplicity
 _atom_site_fract_x
 _atom_site_fract_y
 _atom_site_fract_z
 _atom_site_occupancy
  K  K0  1  0.56336700  0.00521800  0.32835000  1
  K  K1  1  0.93663300  0.00521800  0.82835000  1
  K  K2  1  0.43663300  0.99478200  0.67165000  1
  K  K3  1  0.06336700  0.99478200  0.17165000  1
  K  K4  1  0.06336700  0.50521800  0.17165000  1
  K  K5  1  0.43663300  0.50521800  0.67165000  1
  K  K6  1  0.56336700  0.49478200  0.32835000  1
  K  K7  1  0.93663300  0.49478200  0.82835000  1
  U  U8  1  0.57451000  0.75000000  0.00362800  1
  U  U9  1  0.07451000  0.25000000  0.49637200  1
  U  U10  1  0.42549000  0.25000000  0.99637200  1
  U  U11  1  0.92549000  0.75000000  0.50362800  1
  I  I12  1  0.16704900  0.95578300  0.42601700  1
  I  I13  1  0.15881200  0.25000000  0.70546100  1
  I  I14  1  0.84118800  0.75000000  0.29453900  1
  I  I15  1  0.83295100  0.04421700  0.57398300  1
  I  I16  1  0.66704900  0.45578300  0.07398300  1
  I  I17  1  0.57259000  0.75000000  0.50565500  1
  I  I18  1  0.66704900  0.04421700  0.07398300  1
  I  I19  1  0.92741000  0.75000000  0.00565500  1
  I  I20  1  0.87961400  0.25000000  0.31773700  1
  I  I21  1  0.16704900  0.54421700  0.42601700  1
  I  I22  1  0.37961400  0.75000000  0.18226300  1
  I  I23  1  0.34118800  0.25000000  0.20546100  1
  I  I24  1  0.33295100  0.95578300  0.92601700  1
  I  I25  1  0.42741000  0.25000000  0.49434500  1
  I  I26  1  0.12038600  0.75000000  0.68226300  1
  I  I27  1  0.33295100  0.54421700  0.92601700  1
  I  I28  1  0.62038600  0.25000000  0.81773700  1
  I  I29  1  0.65881200  0.75000000  0.79453900  1
  I  I30  1  0.83295100  0.45578300  0.57398300  1
  I  I31  1  0.07259000  0.25000000  0.99434500  1
