# generated using pymatgen
data_ErCo(CN)6
_symmetry_space_group_name_H-M   'P 1'
_cell_length_a   7.40329118
_cell_length_b   7.40329118
_cell_length_c   12.99997700
_cell_angle_alpha   90.00000000
_cell_angle_beta   90.00000000
_cell_angle_gamma   119.99999270
_symmetry_Int_Tables_number   1
_chemical_formula_structural   ErCo(CN)6
_chemical_formula_sum   'Er2 Co2 C12 N12'
_cell_volume   617.05362779
_cell_formula_units_Z   2
loop_
 _symmetry_equiv_pos_site_id
 _symmetry_equiv_pos_as_xyz
  1  'x, y, z'
loop_
 _atom_site_type_symbol
 _atom_site_label
 _atom_site_symmetry_multiplicity
 _atom_site_fract_x
 _atom_site_fract_y
 _atom_site_fract_z
 _atom_site_occupancy
  Er  Er0  1  0.66666700  0.33333300  0.75000000  1
  Er  Er1  1  0.33333300  0.66666700  0.25000000  1
  Co  Co2  1  0.00000000  0.00000000  0.50000000  1
  Co  Co3  1  0.00000000  0.00000000  0.00000000  1
  C  C4  1  0.11852900  0.88147100  0.41642500  1
  C  C5  1  0.76294200  0.88147100  0.41642500  1
  C  C6  1  0.11852900  0.23705800  0.41642500  1
  C  C7  1  0.88147100  0.76294200  0.91642500  1
  C  C8  1  0.76294200  0.88147100  0.08357500  1
  C  C9  1  0.88147100  0.76294200  0.58357500  1
  C  C10  1  0.88147100  0.11852900  0.58357500  1
  C  C11  1  0.11852900  0.88147100  0.08357500  1
  C  C12  1  0.11852900  0.23705800  0.08357500  1
  C  C13  1  0.88147100  0.11852900  0.91642500  1
  C  C14  1  0.23705800  0.11852900  0.91642500  1
  C  C15  1  0.23705800  0.11852900  0.58357500  1
  N  N16  1  0.80810800  0.61621500  0.86287400  1
  N  N17  1  0.19189200  0.38378500  0.36287400  1
  N  N18  1  0.61621500  0.80810800  0.36287400  1
  N  N19  1  0.19189200  0.80810800  0.36287400  1
  N  N20  1  0.61621500  0.80810800  0.13712600  1
  N  N21  1  0.80810800  0.61621500  0.63712600  1
  N  N22  1  0.80810800  0.19189200  0.63712600  1
  N  N23  1  0.19189200  0.80810800  0.13712600  1
  N  N24  1  0.19189200  0.38378500  0.13712600  1
  N  N25  1  0.80810800  0.19189200  0.86287400  1
  N  N26  1  0.38378500  0.19189200  0.86287400  1
  N  N27  1  0.38378500  0.19189200  0.63712600  1
