# generated using pymatgen
data_RbFeF4
_symmetry_space_group_name_H-M   'P 1'
_cell_length_a   6.33239900
_cell_length_b   7.82044400
_cell_length_c   7.83888700
_cell_angle_alpha   90.00000000
_cell_angle_beta   90.00000000
_cell_angle_gamma   90.00000000
_symmetry_Int_Tables_number   1
_chemical_formula_structural   RbFeF4
_chemical_formula_sum   'Rb4 Fe4 F16'
_cell_volume   388.19870846
_cell_formula_units_Z   4
loop_
 _symmetry_equiv_pos_site_id
 _symmetry_equiv_pos_as_xyz
  1  'x, y, z'
loop_
 _atom_site_type_symbol
 _atom_site_label
 _atom_site_symmetry_multiplicity
 _atom_site_fract_x
 _atom_site_fract_y
 _atom_site_fract_z
 _atom_site_occupancy
  Rb  Rb0  1  0.45056400  0.50000000  0.00000000  1
  Rb  Rb1  1  0.50668200  0.00000000  0.00000000  1
  Rb  Rb2  1  0.49331800  0.50000000  0.50000000  1
  Rb  Rb3  1  0.54943600  0.00000000  0.50000000  1
  Fe  Fe4  1  0.00270000  0.73937500  0.74498000  1
  Fe  Fe5  1  0.00270000  0.26062500  0.25502000  1
  Fe  Fe6  1  0.99730000  0.76062500  0.24498000  1
  Fe  Fe7  1  0.99730000  0.23937500  0.75502000  1
  F  F8  1  0.07847000  0.51236100  0.26104100  1
  F  F9  1  0.06970600  0.75014200  0.99524400  1
  F  F10  1  0.92153000  0.01236100  0.23895900  1
  F  F11  1  0.71724800  0.68223500  0.78299200  1
  F  F12  1  0.06970600  0.24985800  0.00475600  1
  F  F13  1  0.29309200  0.77763700  0.70200000  1
  F  F14  1  0.71724800  0.31776500  0.21700800  1
  F  F15  1  0.93029400  0.74985800  0.49524400  1
  F  F16  1  0.70690800  0.27763700  0.79800000  1
  F  F17  1  0.92153000  0.98763900  0.76104100  1
  F  F18  1  0.29309200  0.22236300  0.29800000  1
  F  F19  1  0.07847000  0.48763900  0.73895900  1
  F  F20  1  0.28275200  0.18223500  0.71700800  1
  F  F21  1  0.93029400  0.25014200  0.50475600  1
  F  F22  1  0.70690800  0.72236300  0.20200000  1
  F  F23  1  0.28275200  0.81776500  0.28299200  1
