# generated using pymatgen
data_K3Mo2Cl9
_symmetry_space_group_name_H-M   'P 1'
_cell_length_a   7.19174177
_cell_length_b   7.19174177
_cell_length_c   17.43280200
_cell_angle_alpha   90.00000000
_cell_angle_beta   90.00000000
_cell_angle_gamma   119.99999785
_symmetry_Int_Tables_number   1
_chemical_formula_structural   K3Mo2Cl9
_chemical_formula_sum   'K6 Mo4 Cl18'
_cell_volume   780.84711177
_cell_formula_units_Z   2
loop_
 _symmetry_equiv_pos_site_id
 _symmetry_equiv_pos_as_xyz
  1  'x, y, z'
loop_
 _atom_site_type_symbol
 _atom_site_label
 _atom_site_symmetry_multiplicity
 _atom_site_fract_x
 _atom_site_fract_y
 _atom_site_fract_z
 _atom_site_occupancy
  K  K0  1  0.66666700  0.33333300  0.43392700  1
  K  K1  1  0.33333300  0.66666700  0.56607300  1
  K  K2  1  0.33333300  0.66666700  0.93392700  1
  K  K3  1  0.66666700  0.33333300  0.06607300  1
  K  K4  1  0.00000000  0.00000000  0.25000000  1
  K  K5  1  0.00000000  0.00000000  0.75000000  1
  Mo  Mo6  1  0.33333300  0.66666700  0.32967500  1
  Mo  Mo7  1  0.66666700  0.33333300  0.67032500  1
  Mo  Mo8  1  0.33333300  0.66666700  0.17032500  1
  Mo  Mo9  1  0.66666700  0.33333300  0.82967500  1
  Cl  Cl10  1  0.54176400  0.99591000  0.25000000  1
  Cl  Cl11  1  0.77975600  0.13151600  0.90777400  1
  Cl  Cl12  1  0.13151600  0.35176100  0.40777400  1
  Cl  Cl13  1  0.35176100  0.22024400  0.90777400  1
  Cl  Cl14  1  0.13151600  0.35176100  0.09222600  1
  Cl  Cl15  1  0.22024400  0.86848400  0.09222600  1
  Cl  Cl16  1  0.00409000  0.54585400  0.25000000  1
  Cl  Cl17  1  0.35176100  0.22024400  0.59222600  1
  Cl  Cl18  1  0.45414600  0.45823600  0.25000000  1
  Cl  Cl19  1  0.77975600  0.13151600  0.59222600  1
  Cl  Cl20  1  0.45823600  0.00409000  0.75000000  1
  Cl  Cl21  1  0.54585400  0.54176400  0.75000000  1
  Cl  Cl22  1  0.99591000  0.45414600  0.75000000  1
  Cl  Cl23  1  0.22024400  0.86848400  0.40777400  1
  Cl  Cl24  1  0.86848400  0.64823900  0.59222600  1
  Cl  Cl25  1  0.64823900  0.77975600  0.09222600  1
  Cl  Cl26  1  0.64823900  0.77975600  0.40777400  1
  Cl  Cl27  1  0.86848400  0.64823900  0.90777400  1
