# generated using pymatgen
data_Zr(Se2Cl3)2
_symmetry_space_group_name_H-M   'P 1'
_cell_length_a   11.11400900
_cell_length_b   11.11400900
_cell_length_c   11.04801900
_cell_angle_alpha   90.00000000
_cell_angle_beta   90.00000000
_cell_angle_gamma   90.00000000
_symmetry_Int_Tables_number   1
_chemical_formula_structural   Zr(Se2Cl3)2
_chemical_formula_sum   'Zr4 Se16 Cl24'
_cell_volume   1364.66452089
_cell_formula_units_Z   4
loop_
 _symmetry_equiv_pos_site_id
 _symmetry_equiv_pos_as_xyz
  1  'x, y, z'
loop_
 _atom_site_type_symbol
 _atom_site_label
 _atom_site_symmetry_multiplicity
 _atom_site_fract_x
 _atom_site_fract_y
 _atom_site_fract_z
 _atom_site_occupancy
  Zr  Zr0  1  0.75000000  0.75000000  0.25000000  1
  Zr  Zr1  1  0.75000000  0.25000000  0.75000000  1
  Zr  Zr2  1  0.25000000  0.25000000  0.25000000  1
  Zr  Zr3  1  0.25000000  0.75000000  0.75000000  1
  Se  Se4  1  0.83925300  0.66074700  0.83056600  1
  Se  Se5  1  0.66074700  0.83925300  0.66943400  1
  Se  Se6  1  0.64498300  0.64498300  0.75000000  1
  Se  Se7  1  0.14498300  0.85501700  0.25000000  1
  Se  Se8  1  0.14498300  0.14498300  0.75000000  1
  Se  Se9  1  0.35501700  0.35501700  0.75000000  1
  Se  Se10  1  0.33925300  0.16074700  0.66943400  1
  Se  Se11  1  0.16074700  0.33925300  0.83056600  1
  Se  Se12  1  0.85501700  0.14498300  0.25000000  1
  Se  Se13  1  0.35501700  0.64498300  0.25000000  1
  Se  Se14  1  0.85501700  0.85501700  0.75000000  1
  Se  Se15  1  0.64498300  0.35501700  0.25000000  1
  Se  Se16  1  0.66074700  0.16074700  0.16943400  1
  Se  Se17  1  0.83925300  0.33925300  0.33056600  1
  Se  Se18  1  0.16074700  0.66074700  0.33056600  1
  Se  Se19  1  0.33925300  0.83925300  0.16943400  1
  Cl  Cl20  1  0.80728700  0.91959500  0.11006700  1
  Cl  Cl21  1  0.61451200  0.11451200  0.86057100  1
  Cl  Cl22  1  0.69271300  0.41959500  0.88993300  1
  Cl  Cl23  1  0.88548800  0.61451200  0.13942900  1
  Cl  Cl24  1  0.30728700  0.58040500  0.88993300  1
  Cl  Cl25  1  0.41959500  0.69271300  0.61006700  1
  Cl  Cl26  1  0.19271300  0.08040500  0.11006700  1
  Cl  Cl27  1  0.69271300  0.58040500  0.38993300  1
  Cl  Cl28  1  0.08040500  0.19271300  0.38993300  1
  Cl  Cl29  1  0.58040500  0.69271300  0.11006700  1
  Cl  Cl30  1  0.30728700  0.41959500  0.38993300  1
  Cl  Cl31  1  0.19271300  0.91959500  0.61006700  1
  Cl  Cl32  1  0.11451200  0.38548800  0.13942900  1
  Cl  Cl33  1  0.58040500  0.30728700  0.61006700  1
  Cl  Cl34  1  0.61451200  0.88548800  0.36057100  1
  Cl  Cl35  1  0.41959500  0.30728700  0.11006700  1
  Cl  Cl36  1  0.11451200  0.61451200  0.63942900  1
  Cl  Cl37  1  0.91959500  0.19271300  0.88993300  1
  Cl  Cl38  1  0.08040500  0.80728700  0.88993300  1
  Cl  Cl39  1  0.38548800  0.88548800  0.86057100  1
  Cl  Cl40  1  0.91959500  0.80728700  0.38993300  1
  Cl  Cl41  1  0.88548800  0.38548800  0.63942900  1
  Cl  Cl42  1  0.80728700  0.08040500  0.61006700  1
  Cl  Cl43  1  0.38548800  0.11451200  0.36057100  1
