# generated using pymatgen
data_BaCu(SeO3)2
_symmetry_space_group_name_H-M   'P 1'
_cell_length_a   5.38763200
_cell_length_b   9.06316000
_cell_length_c   13.57581900
_cell_angle_alpha   90.00000000
_cell_angle_beta   90.00000000
_cell_angle_gamma   90.00000000
_symmetry_Int_Tables_number   1
_chemical_formula_structural   BaCu(SeO3)2
_chemical_formula_sum   'Ba4 Cu4 Se8 O24'
_cell_volume   662.89327004
_cell_formula_units_Z   4
loop_
 _symmetry_equiv_pos_site_id
 _symmetry_equiv_pos_as_xyz
  1  'x, y, z'
loop_
 _atom_site_type_symbol
 _atom_site_label
 _atom_site_symmetry_multiplicity
 _atom_site_fract_x
 _atom_site_fract_y
 _atom_site_fract_z
 _atom_site_occupancy
  Ba  Ba0  1  0.00041400  0.75102400  0.29834500  1
  Ba  Ba1  1  0.99958600  0.25102400  0.20165500  1
  Ba  Ba2  1  0.00041400  0.75102400  0.70165500  1
  Ba  Ba3  1  0.99958600  0.25102400  0.79834500  1
  Cu  Cu4  1  0.54299200  0.04647200  0.63105600  1
  Cu  Cu5  1  0.45700800  0.54647200  0.86894400  1
  Cu  Cu6  1  0.45700800  0.54647200  0.13105600  1
  Cu  Cu7  1  0.54299200  0.04647200  0.36894400  1
  Se  Se8  1  0.52651300  0.23065400  0.00000000  1
  Se  Se9  1  0.50353000  0.91886900  0.85703300  1
  Se  Se10  1  0.50353000  0.91886900  0.14296700  1
  Se  Se11  1  0.08251000  0.16115600  0.50000000  1
  Se  Se12  1  0.47348700  0.73065400  0.50000000  1
  Se  Se13  1  0.49647000  0.41886900  0.35703300  1
  Se  Se14  1  0.49647000  0.41886900  0.64296700  1
  Se  Se15  1  0.91749000  0.66115600  0.00000000  1
  O  O16  1  0.20960300  0.96598100  0.82489600  1
  O  O17  1  0.68752700  0.00184500  0.23296900  1
  O  O18  1  0.20960300  0.96598100  0.17510400  1
  O  O19  1  0.31247300  0.50184500  0.26703100  1
  O  O20  1  0.45469700  0.33419700  0.89577100  1
  O  O21  1  0.59429600  0.60189800  0.00000000  1
  O  O22  1  0.40570400  0.10189800  0.50000000  1
  O  O23  1  0.84194900  0.22068600  0.00000000  1
  O  O24  1  0.15805100  0.72068600  0.50000000  1
  O  O25  1  0.79039700  0.46598100  0.32489600  1
  O  O26  1  0.02599600  0.57264600  0.89805500  1
  O  O27  1  0.02599600  0.57264600  0.10194500  1
  O  O28  1  0.46950800  0.23941800  0.68837900  1
  O  O29  1  0.79039700  0.46598100  0.67510400  1
  O  O30  1  0.68752700  0.00184500  0.76703100  1
  O  O31  1  0.53049200  0.73941800  0.18837900  1
  O  O32  1  0.97400400  0.07264600  0.60194500  1
  O  O33  1  0.45469700  0.33419700  0.10422900  1
  O  O34  1  0.46950800  0.23941800  0.31162100  1
  O  O35  1  0.31247300  0.50184500  0.73296900  1
  O  O36  1  0.53049200  0.73941800  0.81162100  1
  O  O37  1  0.97400400  0.07264600  0.39805500  1
  O  O38  1  0.54530300  0.83419700  0.60422900  1
  O  O39  1  0.54530300  0.83419700  0.39577100  1
