# generated using pymatgen
data_NaMo(PO4)2
_symmetry_space_group_name_H-M   'P 1'
_cell_length_a   5.31231900
_cell_length_b   10.83118200
_cell_length_c   11.77758500
_cell_angle_alpha   90.00000000
_cell_angle_beta   90.00000000
_cell_angle_gamma   90.00000000
_symmetry_Int_Tables_number   1
_chemical_formula_structural   NaMo(PO4)2
_chemical_formula_sum   'Na4 Mo4 P8 O32'
_cell_volume   677.66685856
_cell_formula_units_Z   4
loop_
 _symmetry_equiv_pos_site_id
 _symmetry_equiv_pos_as_xyz
  1  'x, y, z'
loop_
 _atom_site_type_symbol
 _atom_site_label
 _atom_site_symmetry_multiplicity
 _atom_site_fract_x
 _atom_site_fract_y
 _atom_site_fract_z
 _atom_site_occupancy
  Na  Na0  1  0.70952000  0.30222400  0.62076700  1
  Na  Na1  1  0.29048000  0.80222400  0.87923300  1
  Na  Na2  1  0.79048000  0.69777600  0.12076700  1
  Na  Na3  1  0.20952000  0.19777600  0.37923300  1
  Mo  Mo4  1  0.23989800  0.41102800  0.13949300  1
  Mo  Mo5  1  0.73989800  0.08897200  0.86050700  1
  Mo  Mo6  1  0.76010200  0.91102800  0.36050700  1
  Mo  Mo7  1  0.26010200  0.58897200  0.63949300  1
  P  P8  1  0.75937800  0.63477300  0.81976100  1
  P  P9  1  0.24062200  0.13477300  0.68023900  1
  P  P10  1  0.74062200  0.36522700  0.31976100  1
  P  P11  1  0.25794100  0.90878400  0.54530600  1
  P  P12  1  0.24205900  0.09121600  0.04530600  1
  P  P13  1  0.25937800  0.86522700  0.18023900  1
  P  P14  1  0.75794100  0.59121600  0.45469400  1
  P  P15  1  0.74205900  0.40878400  0.95469400  1
  O  O16  1  0.99715400  0.05319800  0.98616900  1
  O  O17  1  0.53547100  0.66250100  0.74000700  1
  O  O18  1  0.01284100  0.66204000  0.76027500  1
  O  O19  1  0.49715400  0.44680200  0.01383100  1
  O  O20  1  0.52987200  0.54476700  0.52233100  1
  O  O21  1  0.98715900  0.16204000  0.73972500  1
  O  O22  1  0.96452900  0.33749900  0.24000700  1
  O  O23  1  0.77027500  0.29953100  0.43036000  1
  O  O24  1  0.03547100  0.83749900  0.25999300  1
  O  O25  1  0.75064400  0.05422600  0.30019000  1
  O  O26  1  0.25346800  0.22594500  0.07674700  1
  O  O27  1  0.02987200  0.95523300  0.47766900  1
  O  O28  1  0.22972500  0.79953100  0.06964000  1
  O  O29  1  0.25178300  0.01597300  0.16387100  1
  O  O30  1  0.75178300  0.48402700  0.83612900  1
  O  O31  1  0.51284100  0.83796000  0.23972500  1
  O  O32  1  0.27027500  0.20046900  0.56964000  1
  O  O33  1  0.24821700  0.98402700  0.66387100  1
  O  O34  1  0.74935600  0.94577400  0.80019000  1
  O  O35  1  0.48715900  0.33796000  0.26027500  1
  O  O36  1  0.72972500  0.70046900  0.93036000  1
  O  O37  1  0.50284600  0.94680200  0.48616900  1
  O  O38  1  0.24653200  0.77405500  0.57674700  1
  O  O39  1  0.74821700  0.51597300  0.33612900  1
  O  O40  1  0.00284600  0.55319800  0.51383100  1
  O  O41  1  0.75346800  0.27405500  0.92325300  1
  O  O42  1  0.25064400  0.44577400  0.69981000  1
  O  O43  1  0.47012800  0.04476700  0.97766900  1
  O  O44  1  0.46452900  0.16250100  0.75999300  1
  O  O45  1  0.97012800  0.45523300  0.02233100  1
  O  O46  1  0.74653200  0.72594500  0.42325300  1
  O  O47  1  0.24935600  0.55422600  0.19981000  1
