# generated using pymatgen
data_UVAgO6
_symmetry_space_group_name_H-M   'P 1'
_cell_length_a   8.40583300
_cell_length_b   6.17337700
_cell_length_c   10.49321444
_cell_angle_alpha   83.13309084
_cell_angle_beta   90.00000000
_cell_angle_gamma   90.00000000
_symmetry_Int_Tables_number   1
_chemical_formula_structural   UVAgO6
_chemical_formula_sum   'U4 V4 Ag4 O24'
_cell_volume   540.61176454
_cell_formula_units_Z   4
loop_
 _symmetry_equiv_pos_site_id
 _symmetry_equiv_pos_as_xyz
  1  'x, y, z'
loop_
 _atom_site_type_symbol
 _atom_site_label
 _atom_site_symmetry_multiplicity
 _atom_site_fract_x
 _atom_site_fract_y
 _atom_site_fract_z
 _atom_site_occupancy
  U  U0  1  0.02034700  0.98477400  0.81703900  1
  U  U1  1  0.97965300  0.01522600  0.18296100  1
  U  U2  1  0.47965300  0.98477400  0.31703900  1
  U  U3  1  0.52034700  0.01522600  0.68296100  1
  V  V4  1  0.14976900  0.13141600  0.45908800  1
  V  V5  1  0.85023100  0.86858400  0.54091200  1
  V  V6  1  0.64976900  0.86858400  0.04091200  1
  V  V7  1  0.35023100  0.13141600  0.95908800  1
  Ag  Ag8  1  0.72444800  0.45771900  0.83382500  1
  Ag  Ag9  1  0.22444800  0.54228100  0.66617500  1
  Ag  Ag10  1  0.77555200  0.45771900  0.33382500  1
  Ag  Ag11  1  0.27555200  0.54228100  0.16617500  1
  O  O12  1  0.58571100  0.29946900  0.64824000  1
  O  O13  1  0.56306200  0.05643200  0.89786100  1
  O  O14  1  0.41428900  0.70053100  0.35176000  1
  O  O15  1  0.85846600  0.61376000  0.50813500  1
  O  O16  1  0.54860400  0.26957000  0.27724000  1
  O  O17  1  0.95139600  0.26957000  0.77724000  1
  O  O18  1  0.14153400  0.38624000  0.49186500  1
  O  O19  1  0.21019600  0.12484700  0.28922100  1
  O  O20  1  0.28980400  0.12484700  0.78922100  1
  O  O21  1  0.04860400  0.73043000  0.22276000  1
  O  O22  1  0.84959800  0.95552700  0.99194700  1
  O  O23  1  0.08571100  0.70053100  0.85176000  1
  O  O24  1  0.15040200  0.04447300  0.00805300  1
  O  O25  1  0.43693800  0.94356800  0.10213900  1
  O  O26  1  0.45139600  0.73043000  0.72276000  1
  O  O27  1  0.65040200  0.95552700  0.49194700  1
  O  O28  1  0.06306200  0.94356800  0.60213900  1
  O  O29  1  0.35846600  0.38624000  0.99186500  1
  O  O30  1  0.91428900  0.29946900  0.14824000  1
  O  O31  1  0.93693800  0.05643200  0.39786100  1
  O  O32  1  0.64153400  0.61376000  0.00813500  1
  O  O33  1  0.34959800  0.04447300  0.50805300  1
  O  O34  1  0.71019600  0.87515300  0.21077900  1
  O  O35  1  0.78980400  0.87515300  0.71077900  1
