# generated using pymatgen
data_Na3CuSnSe4
_symmetry_space_group_name_H-M   'P 1'
_cell_length_a   10.32011200
_cell_length_b   6.90717700
_cell_length_c   14.80448855
_cell_angle_alpha   62.67032396
_cell_angle_beta   90.00000000
_cell_angle_gamma   90.00000000
_symmetry_Int_Tables_number   1
_chemical_formula_structural   Na3CuSnSe4
_chemical_formula_sum   'Na12 Cu4 Sn4 Se16'
_cell_volume   937.51227130
_cell_formula_units_Z   4
loop_
 _symmetry_equiv_pos_site_id
 _symmetry_equiv_pos_as_xyz
  1  'x, y, z'
loop_
 _atom_site_type_symbol
 _atom_site_label
 _atom_site_symmetry_multiplicity
 _atom_site_fract_x
 _atom_site_fract_y
 _atom_site_fract_z
 _atom_site_occupancy
  Na  Na0  1  0.89674800  0.74227400  0.48321700  1
  Na  Na1  1  0.36051300  0.82669000  0.62378200  1
  Na  Na2  1  0.39674800  0.25772600  0.01678300  1
  Na  Na3  1  0.63948700  0.17331000  0.37621800  1
  Na  Na4  1  0.88284100  0.38769300  0.12466700  1
  Na  Na5  1  0.61715900  0.38769300  0.62466700  1
  Na  Na6  1  0.60325200  0.74227400  0.98321700  1
  Na  Na7  1  0.38284100  0.61230700  0.37533300  1
  Na  Na8  1  0.13948700  0.82669000  0.12378200  1
  Na  Na9  1  0.86051300  0.17331000  0.87621800  1
  Na  Na10  1  0.11715900  0.61230700  0.87533300  1
  Na  Na11  1  0.10325200  0.25772600  0.51678300  1
  Cu  Cu12  1  0.60226900  0.62114400  0.78604300  1
  Cu  Cu13  1  0.10226900  0.37885600  0.71395700  1
  Cu  Cu14  1  0.39773100  0.37885600  0.21395700  1
  Cu  Cu15  1  0.89773100  0.62114400  0.28604300  1
  Sn  Sn16  1  0.86134100  0.88950500  0.69523400  1
  Sn  Sn17  1  0.63865900  0.88950500  0.19523400  1
  Sn  Sn18  1  0.36134100  0.11049500  0.80476600  1
  Sn  Sn19  1  0.13865900  0.11049500  0.30476600  1
  Se  Se20  1  0.15846600  0.14371500  0.89797200  1
  Se  Se21  1  0.92791800  0.23039000  0.35728600  1
  Se  Se22  1  0.89738000  0.28643900  0.65923500  1
  Se  Se23  1  0.68100500  0.62135500  0.38301000  1
  Se  Se24  1  0.57208200  0.23039000  0.85728600  1
  Se  Se25  1  0.65846600  0.85628500  0.60202800  1
  Se  Se26  1  0.10262000  0.71356100  0.34076500  1
  Se  Se27  1  0.07208200  0.76961000  0.64271400  1
  Se  Se28  1  0.31899500  0.37864500  0.61699000  1
  Se  Se29  1  0.42791800  0.76961000  0.14271400  1
  Se  Se30  1  0.60262000  0.28643900  0.15923500  1
  Se  Se31  1  0.39738000  0.71356100  0.84076500  1
  Se  Se32  1  0.34153400  0.14371500  0.39797200  1
  Se  Se33  1  0.18100500  0.37864500  0.11699000  1
  Se  Se34  1  0.84153400  0.85628500  0.10202800  1
  Se  Se35  1  0.81899500  0.62135500  0.88301000  1
