# generated using pymatgen
data_Cs3Bi2I9
_symmetry_space_group_name_H-M   'P 1'
_cell_length_a   8.64507786
_cell_length_b   8.64507786
_cell_length_c   21.92308900
_cell_angle_alpha   90.00000000
_cell_angle_beta   90.00000000
_cell_angle_gamma   119.99999890
_symmetry_Int_Tables_number   1
_chemical_formula_structural   Cs3Bi2I9
_chemical_formula_sum   'Cs6 Bi4 I18'
_cell_volume   1418.96015712
_cell_formula_units_Z   2
loop_
 _symmetry_equiv_pos_site_id
 _symmetry_equiv_pos_as_xyz
  1  'x, y, z'
loop_
 _atom_site_type_symbol
 _atom_site_label
 _atom_site_symmetry_multiplicity
 _atom_site_fract_x
 _atom_site_fract_y
 _atom_site_fract_z
 _atom_site_occupancy
  Cs  Cs0  1  0.33333300  0.66666700  0.42061500  1
  Cs  Cs1  1  0.66666700  0.33333300  0.57938500  1
  Cs  Cs2  1  0.33333300  0.66666700  0.07938500  1
  Cs  Cs3  1  0.00000000  0.00000000  0.25000000  1
  Cs  Cs4  1  0.66666700  0.33333300  0.92061500  1
  Cs  Cs5  1  0.00000000  0.00000000  0.75000000  1
  Bi  Bi6  1  0.33333300  0.66666700  0.84432000  1
  Bi  Bi7  1  0.66666700  0.33333300  0.15568000  1
  Bi  Bi8  1  0.33333300  0.66666700  0.65568000  1
  Bi  Bi9  1  0.66666700  0.33333300  0.34432000  1
  I  I10  1  0.16573800  0.83426200  0.58220200  1
  I  I11  1  0.83426200  0.66852300  0.08220200  1
  I  I12  1  0.83426200  0.16573800  0.41779800  1
  I  I13  1  0.49886600  0.99773300  0.25000000  1
  I  I14  1  0.83426200  0.16573800  0.08220200  1
  I  I15  1  0.16573800  0.33147700  0.91779800  1
  I  I16  1  0.00226700  0.50113400  0.25000000  1
  I  I17  1  0.99773300  0.49886600  0.75000000  1
  I  I18  1  0.66852300  0.83426200  0.58220200  1
  I  I19  1  0.49886600  0.50113400  0.25000000  1
  I  I20  1  0.66852300  0.83426200  0.91779800  1
  I  I21  1  0.83426200  0.66852300  0.41779800  1
  I  I22  1  0.16573800  0.33147700  0.58220200  1
  I  I23  1  0.50113400  0.00226700  0.75000000  1
  I  I24  1  0.33147700  0.16573800  0.41779800  1
  I  I25  1  0.33147700  0.16573800  0.08220200  1
  I  I26  1  0.50113400  0.49886600  0.75000000  1
  I  I27  1  0.16573800  0.83426200  0.91779800  1
