# generated using pymatgen
data_CdI2
_symmetry_space_group_name_H-M   'P 1'
_cell_length_a   4.34589571
_cell_length_b   4.34589571
_cell_length_c   66.08729000
_cell_angle_alpha   90.00000000
_cell_angle_beta   90.00000000
_cell_angle_gamma   119.99999554
_symmetry_Int_Tables_number   1
_chemical_formula_structural   CdI2
_chemical_formula_sum   'Cd9 I18'
_cell_volume   1080.95395386
_cell_formula_units_Z   9
loop_
 _symmetry_equiv_pos_site_id
 _symmetry_equiv_pos_as_xyz
  1  'x, y, z'
loop_
 _atom_site_type_symbol
 _atom_site_label
 _atom_site_symmetry_multiplicity
 _atom_site_fract_x
 _atom_site_fract_y
 _atom_site_fract_z
 _atom_site_occupancy
  Cd  Cd0  1  0.00000000  0.00000000  0.80557800  1
  Cd  Cd1  1  0.00000000  0.00000000  0.91665900  1
  Cd  Cd2  1  0.00000000  0.00000000  0.58333000  1
  Cd  Cd3  1  0.33333300  0.66666700  0.69441300  1
  Cd  Cd4  1  0.66666700  0.33333300  0.02778000  1
  Cd  Cd5  1  0.00000000  0.00000000  0.13890900  1
  Cd  Cd6  1  0.00000000  0.00000000  0.36108000  1
  Cd  Cd7  1  0.66666700  0.33333300  0.47224500  1
  Cd  Cd8  1  0.66666700  0.33333300  0.24999200  1
  I  I9  1  0.00000000  0.00000000  0.22387000  1
  I  I10  1  0.66666700  0.33333300  0.33496100  1
  I  I11  1  0.66666700  0.33333300  0.55720600  1
  I  I12  1  0.00000000  0.00000000  0.72054800  1
  I  I13  1  0.00000000  0.00000000  0.44611800  1
  I  I14  1  0.33333300  0.66666700  0.27612000  1
  I  I15  1  0.33333300  0.66666700  0.05391000  1
  I  I16  1  0.33333300  0.66666700  0.60944900  1
  I  I17  1  0.66666700  0.33333300  0.89054000  1
  I  I18  1  0.33333300  0.66666700  0.94278200  1
  I  I19  1  0.66666700  0.33333300  0.11279700  1
  I  I20  1  0.00000000  0.00000000  0.00167800  1
  I  I21  1  0.33333300  0.66666700  0.16502900  1
  I  I22  1  0.66666700  0.33333300  0.77944100  1
  I  I23  1  0.33333300  0.66666700  0.38719700  1
  I  I24  1  0.33333300  0.66666700  0.83171500  1
  I  I25  1  0.66666700  0.33333300  0.66827800  1
  I  I26  1  0.33333300  0.66666700  0.49837400  1
