# generated using pymatgen
data_P2WO8
_symmetry_space_group_name_H-M   'P 1'
_cell_length_a   5.24558900
_cell_length_b   6.72504600
_cell_length_c   16.93205500
_cell_angle_alpha   90.00000000
_cell_angle_beta   90.00000000
_cell_angle_gamma   90.00000000
_symmetry_Int_Tables_number   1
_chemical_formula_structural   P2WO8
_chemical_formula_sum   'P8 W4 O32'
_cell_volume   597.30918044
_cell_formula_units_Z   4
loop_
 _symmetry_equiv_pos_site_id
 _symmetry_equiv_pos_as_xyz
  1  'x, y, z'
loop_
 _atom_site_type_symbol
 _atom_site_label
 _atom_site_symmetry_multiplicity
 _atom_site_fract_x
 _atom_site_fract_y
 _atom_site_fract_z
 _atom_site_occupancy
  P  P0  1  0.75000000  0.20955500  0.83193300  1
  P  P1  1  0.75000000  0.90532100  0.42165700  1
  P  P2  1  0.75000000  0.29044500  0.33193300  1
  P  P3  1  0.75000000  0.59467900  0.92165700  1
  P  P4  1  0.25000000  0.79044500  0.16806700  1
  P  P5  1  0.25000000  0.40532100  0.07834300  1
  P  P6  1  0.25000000  0.09467900  0.57834300  1
  P  P7  1  0.25000000  0.70955500  0.66806700  1
  W  W8  1  0.25000000  0.62238600  0.37102400  1
  W  W9  1  0.75000000  0.37761400  0.62897600  1
  W  W10  1  0.75000000  0.12238600  0.12897600  1
  W  W11  1  0.25000000  0.87761400  0.87102400  1
  O  O12  1  0.75000000  0.32161100  0.75511500  1
  O  O13  1  0.25000000  0.36447200  0.99325100  1
  O  O14  1  0.51577000  0.82597900  0.37204300  1
  O  O15  1  0.25000000  0.13552800  0.49325100  1
  O  O16  1  0.01198500  0.57879500  0.65786500  1
  O  O17  1  0.75000000  0.36020600  0.90359800  1
  O  O18  1  0.98801500  0.07879500  0.84213500  1
  O  O19  1  0.25000000  0.92484000  0.97102600  1
  O  O20  1  0.25000000  0.82161100  0.74488500  1
  O  O21  1  0.48423000  0.32597900  0.12795700  1
  O  O22  1  0.25000000  0.57516000  0.47102600  1
  O  O23  1  0.25000000  0.67838900  0.24488500  1
  O  O24  1  0.01577000  0.17402100  0.62795700  1
  O  O25  1  0.75000000  0.13979400  0.40359800  1
  O  O26  1  0.75000000  0.42484000  0.52897400  1
  O  O27  1  0.48801500  0.57879500  0.65786500  1
  O  O28  1  0.98423000  0.67402100  0.87204300  1
  O  O29  1  0.98423000  0.82597900  0.37204300  1
  O  O30  1  0.25000000  0.63979400  0.09640200  1
  O  O31  1  0.48423000  0.17402100  0.62795700  1
  O  O32  1  0.51198500  0.07879500  0.84213500  1
  O  O33  1  0.51198500  0.42120500  0.34213500  1
  O  O34  1  0.25000000  0.86020600  0.59640200  1
  O  O35  1  0.75000000  0.63552800  0.00674900  1
  O  O36  1  0.75000000  0.07516000  0.02897400  1
  O  O37  1  0.98801500  0.42120500  0.34213500  1
  O  O38  1  0.48801500  0.92120500  0.15786500  1
  O  O39  1  0.75000000  0.17838900  0.25511500  1
  O  O40  1  0.75000000  0.86447200  0.50674900  1
  O  O41  1  0.51577000  0.67402100  0.87204300  1
  O  O42  1  0.01577000  0.32597900  0.12795700  1
  O  O43  1  0.01198500  0.92120500  0.15786500  1
