# generated using pymatgen
data_Al(HO)3
_symmetry_space_group_name_H-M   'P 1'
_cell_length_a   4.99380000
_cell_length_b   5.02007467
_cell_length_c   5.22703862
_cell_angle_alpha   96.35433344
_cell_angle_beta   105.92663292
_cell_angle_gamma   116.09222870
_symmetry_Int_Tables_number   1
_chemical_formula_structural   Al(HO)3
_chemical_formula_sum   'Al2 H6 O6'
_cell_volume   109.02936116
_cell_formula_units_Z   2
loop_
 _symmetry_equiv_pos_site_id
 _symmetry_equiv_pos_as_xyz
  1  'x, y, z'
loop_
 _atom_site_type_symbol
 _atom_site_label
 _atom_site_symmetry_multiplicity
 _atom_site_fract_x
 _atom_site_fract_y
 _atom_site_fract_z
 _atom_site_occupancy
  Al  Al0  1  0.66941700  0.32126500  0.99462300  1
  Al  Al1  1  0.33058300  0.67873500  0.00537700  1
  H  H2  1  0.21119400  0.85546200  0.58833100  1
  H  H3  1  0.78880600  0.14453800  0.41166900  1
  H  H4  1  0.61167800  0.66925900  0.66750200  1
  H  H5  1  0.38832200  0.33074100  0.33249800  1
  H  H6  1  0.99313800  0.14428400  0.80334500  1
  H  H7  1  0.00686200  0.85571600  0.19665500  1
  O  O8  1  0.27359600  0.94090000  0.78851900  1
  O  O9  1  0.72640400  0.05910000  0.21148100  1
  O  O10  1  0.52500300  0.55239300  0.78848600  1
  O  O11  1  0.47499700  0.44760700  0.21151400  1
  O  O12  1  0.91982900  0.29655400  0.78628000  1
  O  O13  1  0.08017100  0.70344600  0.21372000  1
