# generated using pymatgen
data_NaH3O2
_symmetry_space_group_name_H-M   'P 1'
_cell_length_a   11.91612700
_cell_length_b   6.11191200
_cell_length_c   6.15271499
_cell_angle_alpha   89.75774973
_cell_angle_beta   90.00000000
_cell_angle_gamma   90.00000000
_symmetry_Int_Tables_number   1
_chemical_formula_structural   NaH3O2
_chemical_formula_sum   'Na8 H24 O16'
_cell_volume   448.10019422
_cell_formula_units_Z   8
loop_
 _symmetry_equiv_pos_site_id
 _symmetry_equiv_pos_as_xyz
  1  'x, y, z'
loop_
 _atom_site_type_symbol
 _atom_site_label
 _atom_site_symmetry_multiplicity
 _atom_site_fract_x
 _atom_site_fract_y
 _atom_site_fract_z
 _atom_site_occupancy
  Na  Na0  1  0.55265500  0.79399600  0.36849200  1
  Na  Na1  1  0.44681700  0.70959400  0.86393600  1
  Na  Na2  1  0.94681700  0.29040600  0.63606400  1
  Na  Na3  1  0.05265500  0.20600400  0.13150800  1
  Na  Na4  1  0.44734500  0.20600400  0.63150800  1
  Na  Na5  1  0.55318300  0.29040600  0.13606400  1
  Na  Na6  1  0.05318300  0.70959400  0.36393600  1
  Na  Na7  1  0.94734500  0.79399600  0.86849200  1
  H  H8  1  0.86594900  0.05946300  0.22250600  1
  H  H9  1  0.87015300  0.88740400  0.43512900  1
  H  H10  1  0.12933000  0.60619500  0.92388400  1
  H  H11  1  0.12916900  0.44182600  0.70661100  1
  H  H12  1  0.62933000  0.39380500  0.57611600  1
  H  H13  1  0.62916900  0.55817400  0.79338900  1
  H  H14  1  0.37015300  0.11259600  0.06487100  1
  H  H15  1  0.36594900  0.94053700  0.27749400  1
  H  H16  1  0.12984700  0.11259600  0.56487100  1
  H  H17  1  0.13405100  0.94053700  0.77749400  1
  H  H18  1  0.87067000  0.39380500  0.07611600  1
  H  H19  1  0.87083100  0.55817400  0.29338900  1
  H  H20  1  0.37083100  0.44182600  0.20661100  1
  H  H21  1  0.37067000  0.60619500  0.42388400  1
  H  H22  1  0.63405100  0.05946300  0.72250600  1
  H  H23  1  0.62984700  0.88740400  0.93512900  1
  H  H24  1  0.70381100  0.12288000  0.42890000  1
  H  H25  1  0.29754300  0.37655100  0.91758700  1
  H  H26  1  0.79754300  0.62344900  0.58241300  1
  H  H27  1  0.20381100  0.87712000  0.07110000  1
  H  H28  1  0.29618900  0.87712000  0.57110000  1
  H  H29  1  0.70245700  0.62344900  0.08241300  1
  H  H30  1  0.20245700  0.37655100  0.41758700  1
  H  H31  1  0.79618900  0.12288000  0.92890000  1
  O  O32  1  0.87619200  0.04580400  0.38578100  1
  O  O33  1  0.12030200  0.45041000  0.87108200  1
  O  O34  1  0.62030200  0.54959000  0.62891800  1
  O  O35  1  0.37619200  0.95419600  0.11421900  1
  O  O36  1  0.12380800  0.95419600  0.61421900  1
  O  O37  1  0.87969800  0.54959000  0.12891800  1
  O  O38  1  0.37969800  0.45041000  0.37108200  1
  O  O39  1  0.62380800  0.04580400  0.88578100  1
  O  O40  1  0.62448000  0.14124400  0.46508600  1
  O  O41  1  0.37695600  0.36130200  0.95383100  1
  O  O42  1  0.87695600  0.63869800  0.54616900  1
  O  O43  1  0.12448000  0.85875600  0.03491400  1
  O  O44  1  0.37552000  0.85875600  0.53491400  1
  O  O45  1  0.62304400  0.63869800  0.04616900  1
  O  O46  1  0.12304400  0.36130200  0.45383100  1
  O  O47  1  0.87552000  0.14124400  0.96508600  1
