# generated using pymatgen
data_Tb(HO)3
_symmetry_space_group_name_H-M   'P 1'
_cell_length_a   3.51565800
_cell_length_b   6.33259500
_cell_length_c   6.44024130
_cell_angle_alpha   61.43201587
_cell_angle_beta   90.00000000
_cell_angle_gamma   90.00000000
_symmetry_Int_Tables_number   1
_chemical_formula_structural   Tb(HO)3
_chemical_formula_sum   'Tb2 H6 O6'
_cell_volume   125.92408158
_cell_formula_units_Z   2
loop_
 _symmetry_equiv_pos_site_id
 _symmetry_equiv_pos_as_xyz
  1  'x, y, z'
loop_
 _atom_site_type_symbol
 _atom_site_label
 _atom_site_symmetry_multiplicity
 _atom_site_fract_x
 _atom_site_fract_y
 _atom_site_fract_z
 _atom_site_occupancy
  Tb  Tb0  1  0.75000000  0.34119100  0.32589200  1
  Tb  Tb1  1  0.25000000  0.65880900  0.67410800  1
  H  H2  1  0.75000000  0.85778200  0.30238100  1
  H  H3  1  0.75000000  0.26905300  0.86325000  1
  H  H4  1  0.75000000  0.87070300  0.85869300  1
  H  H5  1  0.25000000  0.14221800  0.69761900  1
  H  H6  1  0.25000000  0.73094700  0.13675000  1
  H  H7  1  0.25000000  0.12929700  0.14130700  1
  O  O8  1  0.75000000  0.68458000  0.40655700  1
  O  O9  1  0.75000000  0.39118500  0.91489300  1
  O  O10  1  0.75000000  0.91192600  0.69274100  1
  O  O11  1  0.25000000  0.31542000  0.59344300  1
  O  O12  1  0.25000000  0.60881500  0.08510700  1
  O  O13  1  0.25000000  0.08807400  0.30725900  1
