# generated using pymatgen
data_Sm(HO)3
_symmetry_space_group_name_H-M   'P 1'
_cell_length_a   3.63502200
_cell_length_b   6.41361700
_cell_length_c   6.49983087
_cell_angle_alpha   61.03760193
_cell_angle_beta   90.00000000
_cell_angle_gamma   90.00000000
_symmetry_Int_Tables_number   1
_chemical_formula_structural   Sm(HO)3
_chemical_formula_sum   'Sm2 H6 O6'
_cell_volume   132.58342877
_cell_formula_units_Z   2
loop_
 _symmetry_equiv_pos_site_id
 _symmetry_equiv_pos_as_xyz
  1  'x, y, z'
loop_
 _atom_site_type_symbol
 _atom_site_label
 _atom_site_symmetry_multiplicity
 _atom_site_fract_x
 _atom_site_fract_y
 _atom_site_fract_z
 _atom_site_occupancy
  Sm  Sm0  1  0.75000000  0.65999300  0.67250900  1
  Sm  Sm1  1  0.25000000  0.34000700  0.32749100  1
  H  H2  1  0.75000000  0.72760000  0.13621700  1
  H  H3  1  0.75000000  0.12925600  0.14417600  1
  H  H4  1  0.75000000  0.14186600  0.69648400  1
  H  H5  1  0.25000000  0.27240000  0.86378300  1
  H  H6  1  0.25000000  0.87074400  0.85582400  1
  H  H7  1  0.25000000  0.85813400  0.30351600  1
  O  O8  1  0.75000000  0.60971300  0.08313500  1
  O  O9  1  0.75000000  0.08360000  0.31086200  1
  O  O10  1  0.75000000  0.31433900  0.59505800  1
  O  O11  1  0.25000000  0.39028700  0.91686500  1
  O  O12  1  0.25000000  0.91640000  0.68913800  1
  O  O13  1  0.25000000  0.68566100  0.40494200  1
