# generated using pymatgen
data_NaH9O5
_symmetry_space_group_name_H-M   'P 1'
_cell_length_a   4.36128700
_cell_length_b   7.92020682
_cell_length_c   9.12772937
_cell_angle_alpha   69.35206978
_cell_angle_beta   76.70994421
_cell_angle_gamma   75.93800173
_symmetry_Int_Tables_number   1
_chemical_formula_structural   NaH9O5
_chemical_formula_sum   'Na2 H18 O10'
_cell_volume   282.56399865
_cell_formula_units_Z   2
loop_
 _symmetry_equiv_pos_site_id
 _symmetry_equiv_pos_as_xyz
  1  'x, y, z'
loop_
 _atom_site_type_symbol
 _atom_site_label
 _atom_site_symmetry_multiplicity
 _atom_site_fract_x
 _atom_site_fract_y
 _atom_site_fract_z
 _atom_site_occupancy
  Na  Na0  1  0.46129600  0.23442400  0.86145800  1
  Na  Na1  1  0.55454700  0.76378200  0.14255100  1
  H  H2  1  0.37068800  0.85511700  0.62108300  1
  H  H3  1  0.63315300  0.14229500  0.38013800  1
  H  H4  1  0.06347700  0.50672100  0.97532200  1
  H  H5  1  0.26151400  0.64483300  0.82941500  1
  H  H6  1  0.72311500  0.35565400  0.16969700  1
  H  H7  1  0.54492100  0.49416300  0.02326900  1
  H  H8  1  0.80518700  0.90884700  0.79231200  1
  H  H9  1  0.44295100  0.89356600  0.80697900  1
  H  H10  1  0.55284000  0.10285800  0.19625200  1
  H  H11  1  0.18808700  0.09377800  0.20848800  1
  H  H12  1  0.08484600  0.12286200  0.72784200  1
  H  H13  1  0.93369200  0.54445900  0.67077700  1
  H  H14  1  0.94053700  0.87816700  0.27010200  1
  H  H15  1  0.09252700  0.45354000  0.32577600  1
  H  H16  1  0.00648200  0.74090600  0.64037000  1
  H  H17  1  0.96374400  0.70113700  0.41042000  1
  H  H18  1  0.03057100  0.29971800  0.59000700  1
  H  H19  1  0.99029700  0.26296400  0.35665300  1
  O  O20  1  0.20107200  0.85261100  0.71261400  1
  O  O21  1  0.79826600  0.14907700  0.28626800  1
  O  O22  1  0.28010100  0.51425200  0.90732400  1
  O  O23  1  0.70231800  0.48603500  0.09167600  1
  O  O24  1  0.59151800  0.92820300  0.85784300  1
  O  O25  1  0.40310300  0.07037700  0.14474900  1
  O  O26  1  0.01144000  0.25547500  0.70974200  1
  O  O27  1  0.99237300  0.74447900  0.29028400  1
  O  O28  1  0.89442700  0.67141900  0.60145600  1
  O  O29  1  0.10335100  0.32827900  0.39913000  1
