# generated using pymatgen
data_H5BrO2
_symmetry_space_group_name_H-M   'P 1'
_cell_length_a   4.37072600
_cell_length_b   6.95888917
_cell_length_c   12.34885175
_cell_angle_alpha   91.70923234
_cell_angle_beta   90.55508242
_cell_angle_gamma   104.65499772
_symmetry_Int_Tables_number   1
_chemical_formula_structural   H5BrO2
_chemical_formula_sum   'H20 Br4 O8'
_cell_volume   363.15654825
_cell_formula_units_Z   4
loop_
 _symmetry_equiv_pos_site_id
 _symmetry_equiv_pos_as_xyz
  1  'x, y, z'
loop_
 _atom_site_type_symbol
 _atom_site_label
 _atom_site_symmetry_multiplicity
 _atom_site_fract_x
 _atom_site_fract_y
 _atom_site_fract_z
 _atom_site_occupancy
  H  H0  1  0.27735600  0.41514000  0.69508200  1
  H  H1  1  0.51670000  0.33057000  0.60359000  1
  H  H2  1  0.58273400  0.57864500  0.64455100  1
  H  H3  1  0.40654900  0.92331400  0.15871800  1
  H  H4  1  0.46087700  0.15739200  0.10849100  1
  H  H5  1  0.71334000  0.09842400  0.20624800  1
  H  H6  1  0.42361200  0.43810900  0.35869900  1
  H  H7  1  0.72158500  0.59612500  0.30174800  1
  H  H8  1  0.58372500  0.06429800  0.85503200  1
  H  H9  1  0.26139900  0.90318800  0.81581300  1
  H  H10  1  0.74600300  0.10618100  0.61341400  1
  H  H11  1  0.77991600  0.20661500  0.49776600  1
  H  H12  1  0.25618500  0.39775000  0.10603000  1
  H  H13  1  0.23781300  0.29047300  0.99004600  1
  H  H14  1  0.48919300  0.68484000  0.39888700  1
  H  H15  1  0.11715500  0.77778000  0.44483400  1
  H  H16  1  0.42641400  0.93038700  0.48807900  1
  H  H17  1  0.73158300  0.59353200  0.89227800  1
  H  H18  1  0.76455000  0.69664900  0.01103900  1
  H  H19  1  0.53453000  0.82027400  0.90422000  1
  Br  Br20  1  0.95782600  0.34371600  0.83097800  1
  Br  Br21  1  0.02861400  0.19440600  0.34494100  1
  Br  Br22  1  0.02934200  0.65718400  0.16368400  1
  Br  Br23  1  0.93651600  0.84423800  0.67086100  1
  O  O24  1  0.41219700  0.44952700  0.62860000  1
  O  O25  1  0.57472900  0.04682300  0.14010300  1
  O  O26  1  0.60022700  0.56587400  0.37141800  1
  O  O27  1  0.41741200  0.94480700  0.87786300  1
  O  O28  1  0.63543200  0.17287400  0.56105500  1
  O  O29  1  0.32113000  0.29154500  0.06469300  1
  O  O30  1  0.34304100  0.82224800  0.43329200  1
  O  O31  1  0.64820900  0.68448400  0.94040800  1
