# generated using pymatgen
data_ScHO2
_symmetry_space_group_name_H-M   'P 1'
_cell_length_a   3.24956700
_cell_length_b   4.76550400
_cell_length_c   10.44862100
_cell_angle_alpha   90.00000000
_cell_angle_beta   90.00000000
_cell_angle_gamma   90.00000000
_symmetry_Int_Tables_number   1
_chemical_formula_structural   ScHO2
_chemical_formula_sum   'Sc4 H4 O8'
_cell_volume   161.80551146
_cell_formula_units_Z   4
loop_
 _symmetry_equiv_pos_site_id
 _symmetry_equiv_pos_as_xyz
  1  'x, y, z'
loop_
 _atom_site_type_symbol
 _atom_site_label
 _atom_site_symmetry_multiplicity
 _atom_site_fract_x
 _atom_site_fract_y
 _atom_site_fract_z
 _atom_site_occupancy
  Sc  Sc0  1  0.25000000  0.43026000  0.35625600  1
  Sc  Sc1  1  0.25000000  0.06974000  0.85625600  1
  Sc  Sc2  1  0.75000000  0.56974000  0.64374400  1
  Sc  Sc3  1  0.75000000  0.93026000  0.14374400  1
  H  H4  1  0.25000000  0.11152400  0.59578300  1
  H  H5  1  0.25000000  0.38847600  0.09578300  1
  H  H6  1  0.75000000  0.88847600  0.40421700  1
  H  H7  1  0.75000000  0.61152400  0.90421700  1
  O  O8  1  0.25000000  0.81359700  0.69646300  1
  O  O9  1  0.25000000  0.68640300  0.19646300  1
  O  O10  1  0.75000000  0.18640300  0.30353700  1
  O  O11  1  0.75000000  0.31359700  0.80353700  1
  O  O12  1  0.25000000  0.30529800  0.55957400  1
  O  O13  1  0.25000000  0.19470200  0.05957400  1
  O  O14  1  0.75000000  0.69470200  0.44042600  1
  O  O15  1  0.75000000  0.80529800  0.94042600  1
