# generated using pymatgen
data_U3(HO5)2
_symmetry_space_group_name_H-M   'P 1'
_cell_length_a   5.57022300
_cell_length_b   5.89859720
_cell_length_c   7.38701840
_cell_angle_alpha   73.61258278
_cell_angle_beta   72.11225835
_cell_angle_gamma   73.19260454
_symmetry_Int_Tables_number   1
_chemical_formula_structural   U3(HO5)2
_chemical_formula_sum   'U3 H2 O10'
_cell_volume   216.07647083
_cell_formula_units_Z   1
loop_
 _symmetry_equiv_pos_site_id
 _symmetry_equiv_pos_as_xyz
  1  'x, y, z'
loop_
 _atom_site_type_symbol
 _atom_site_label
 _atom_site_symmetry_multiplicity
 _atom_site_fract_x
 _atom_site_fract_y
 _atom_site_fract_z
 _atom_site_occupancy
  U  U0  1  0.99602500  0.00278100  0.99748000  1
  U  U1  1  0.53970300  0.44451000  0.74996500  1
  U  U2  1  0.44681700  0.56279500  0.25552700  1
  H  H3  1  0.86132600  0.19673500  0.44494000  1
  H  H4  1  0.98976400  0.65578000  0.61078200  1
  O  O5  1  0.89657000  0.08118900  0.76109300  1
  O  O6  1  0.09022500  0.92571400  0.23644200  1
  O  O7  1  0.68802300  0.30141100  0.46672400  1
  O  O8  1  0.32180300  0.64899000  0.55854600  1
  O  O9  1  0.29963300  0.68808600  0.95708700  1
  O  O10  1  0.68962000  0.31734800  0.03640500  1
  O  O11  1  0.68830500  0.76654600  0.14502400  1
  O  O12  1  0.29692700  0.23134800  0.86321200  1
  O  O13  1  0.80207100  0.64800000  0.64806300  1
  O  O14  1  0.21426200  0.37412800  0.34603700  1
