# generated using pymatgen
data_Al(HO)3
_symmetry_space_group_name_H-M   'P 1'
_cell_length_a   5.06911200
_cell_length_b   8.84788306
_cell_length_c   9.71417256
_cell_angle_alpha   86.98076629
_cell_angle_beta   89.28153176
_cell_angle_gamma   89.96091298
_symmetry_Int_Tables_number   1
_chemical_formula_structural   Al(HO)3
_chemical_formula_sum   'Al8 H24 O24'
_cell_volume   435.05049833
_cell_formula_units_Z   8
loop_
 _symmetry_equiv_pos_site_id
 _symmetry_equiv_pos_as_xyz
  1  'x, y, z'
loop_
 _atom_site_type_symbol
 _atom_site_label
 _atom_site_symmetry_multiplicity
 _atom_site_fract_x
 _atom_site_fract_y
 _atom_site_fract_z
 _atom_site_occupancy
  Al  Al0  1  0.01770000  0.66799900  0.50483200  1
  Al  Al1  1  0.48085300  0.15679700  0.98964600  1
  Al  Al2  1  0.98401800  0.34425300  0.50184200  1
  Al  Al3  1  0.51375800  0.82185400  0.00233500  1
  Al  Al4  1  0.52204900  0.83750500  0.50305300  1
  Al  Al5  1  0.97908600  0.32414500  0.99790200  1
  Al  Al6  1  0.48042600  0.17016900  0.49722100  1
  Al  Al7  1  0.01951800  0.65989900  0.00888500  1
  H  H8  1  0.71263500  0.69601800  0.70861900  1
  H  H9  1  0.79779800  0.14070500  0.19297000  1
  H  H10  1  0.30099000  0.34157900  0.29741300  1
  H  H11  1  0.21414000  0.79783300  0.79905600  1
  H  H12  1  0.01459700  0.09910200  0.60450000  1
  H  H13  1  0.32179300  0.67910000  0.21346400  1
  H  H14  1  0.94544900  0.92198000  0.38344300  1
  H  H15  1  0.67486100  0.31806200  0.79110600  1
  H  H16  1  0.62536600  0.00489700  0.70447400  1
  H  H17  1  0.66495200  0.50278600  0.11747200  1
  H  H18  1  0.38549900  0.99446500  0.29679100  1
  H  H19  1  0.32869300  0.47300800  0.90048400  1
  H  H20  1  0.12167800  0.49211300  0.71026300  1
  H  H21  1  0.16462900  0.96507500  0.09644700  1
  H  H22  1  0.89277500  0.51893200  0.29656100  1
  H  H23  1  0.82871400  0.00899500  0.89111700  1
  H  H24  1  0.09485800  0.89678100  0.62175600  1
  H  H25  1  0.22854100  0.20385700  0.17848900  1
  H  H26  1  0.73545800  0.28044300  0.30998600  1
  H  H27  1  0.64082700  0.57951000  0.88620800  1
  H  H28  1  0.55902000  0.41441900  0.60246200  1
  H  H29  1  0.81839900  0.80792200  0.20747000  1
  H  H30  1  0.43565300  0.59122000  0.40191500  1
  H  H31  1  0.17616300  0.19017200  0.78705800  1
  O  O32  1  0.70298700  0.68912800  0.60777400  1
  O  O33  1  0.78954700  0.16843700  0.09485800  1
  O  O34  1  0.29997200  0.32690300  0.39774900  1
  O  O35  1  0.20536300  0.80629500  0.89983300  1
  O  O36  1  0.14840600  0.17960100  0.60510700  1
  O  O37  1  0.33123400  0.66490400  0.11287200  1
  O  O38  1  0.84258000  0.82851100  0.39168400  1
  O  O39  1  0.66074400  0.32697100  0.89308300  1
  O  O40  1  0.64600200  0.00889000  0.60206100  1
  O  O41  1  0.85644000  0.48755000  0.11225900  1
  O  O42  1  0.36756500  0.00113400  0.39761100  1
  O  O43  1  0.13904600  0.49335700  0.90078600  1
  O  O44  1  0.13149600  0.49365100  0.60886000  1
  O  O45  1  0.35494200  0.98301000  0.10516900  1
  O  O46  1  0.86994700  0.51734700  0.39759400  1
  O  O47  1  0.63638400  0.99869600  0.88590600  1
  O  O48  1  0.20550400  0.80765700  0.61544700  1
  O  O49  1  0.28476900  0.28527500  0.11305600  1
  O  O50  1  0.79273000  0.20814500  0.38284800  1
  O  O51  1  0.71106400  0.68143700  0.89336400  1
  O  O52  1  0.65634400  0.31837500  0.60911900  1
  O  O53  1  0.82722500  0.80723100  0.10551100  1
  O  O54  1  0.34097700  0.68791600  0.39740900  1
  O  O55  1  0.16898100  0.18359500  0.88918800  1
