# generated using pymatgen
data_Al(HO)3
_symmetry_space_group_name_H-M   'P 1'
_cell_length_a   5.00549900
_cell_length_b   8.85289735
_cell_length_c   9.59730121
_cell_angle_alpha   87.91465481
_cell_angle_beta   89.63022827
_cell_angle_gamma   87.64432505
_symmetry_Int_Tables_number   1
_chemical_formula_structural   Al(HO)3
_chemical_formula_sum   'Al8 H24 O24'
_cell_volume   424.64077986
_cell_formula_units_Z   8
loop_
 _symmetry_equiv_pos_site_id
 _symmetry_equiv_pos_as_xyz
  1  'x, y, z'
loop_
 _atom_site_type_symbol
 _atom_site_label
 _atom_site_symmetry_multiplicity
 _atom_site_fract_x
 _atom_site_fract_y
 _atom_site_fract_z
 _atom_site_occupancy
  Al  Al0  1  0.99720500  0.32442300  0.50243700  1
  Al  Al1  1  0.50156100  0.83860500  0.00553000  1
  Al  Al2  1  0.98120200  0.66840500  0.50567000  1
  Al  Al3  1  0.51616500  0.17509300  0.01060300  1
  Al  Al4  1  0.50929700  0.16285500  0.49875900  1
  Al  Al5  1  0.02151900  0.66568000  0.00192600  1
  Al  Al6  1  0.47831400  0.83396000  0.50236900  1
  Al  Al7  1  0.98469800  0.33258100  0.00691700  1
  H  H8  1  0.69214600  0.31513300  0.28589000  1
  H  H9  1  0.89104700  0.92354400  0.88590700  1
  H  H10  1  0.29102300  0.68655600  0.70433900  1
  H  H11  1  0.20053500  0.19436500  0.20724200  1
  H  H12  1  0.01004600  0.90150400  0.38928800  1
  H  H13  1  0.42978300  0.40602700  0.88708100  1
  H  H14  1  0.92874900  0.07374900  0.61658700  1
  H  H15  1  0.64074300  0.57282700  0.11921800  1
  H  H16  1  0.61832100  0.00115300  0.29153700  1
  H  H17  1  0.90199900  0.50488100  0.79490500  1
  H  H18  1  0.37350200  0.99909000  0.70596600  1
  H  H19  1  0.34807300  0.44667100  0.11161400  1
  H  H20  1  0.35800900  0.50491800  0.39571200  1
  H  H21  1  0.13708300  0.50122100  0.27331300  1
  H  H22  1  0.18611200  0.04196900  0.89873900  1
  H  H23  1  0.66470200  0.48953500  0.60026100  1
  H  H24  1  0.84648700  0.98854100  0.11350900  1
  H  H25  1  0.09005800  0.10011500  0.38109600  1
  H  H26  1  0.47495800  0.60895700  0.88266400  1
  H  H27  1  0.79076600  0.80331400  0.71401100  1
  H  H28  1  0.68570400  0.69512000  0.29354200  1
  H  H29  1  0.81475500  0.19147100  0.79599000  1
  H  H30  1  0.31514400  0.31012900  0.70350600  1
  H  H31  1  0.18689800  0.81020000  0.21135900  1
  O  O32  1  0.68952200  0.31637300  0.39235900  1
  O  O33  1  0.82183200  0.82181400  0.89225300  1
  O  O34  1  0.30005800  0.67493400  0.60236200  1
  O  O35  1  0.18580000  0.17924900  0.10621600  1
  O  O36  1  0.15625100  0.82328800  0.38886300  1
  O  O37  1  0.31498900  0.31960000  0.88601100  1
  O  O38  1  0.82267600  0.16991600  0.61097000  1
  O  O39  1  0.70556600  0.67606200  0.11215600  1
  O  O40  1  0.64267800  0.99616200  0.39448800  1
  O  O41  1  0.86437500  0.51109100  0.89601100  1
  O  O42  1  0.34936500  0.00050400  0.60333700  1
  O  O43  1  0.15918100  0.48968200  0.11554400  1
  O  O44  1  0.16159600  0.50448900  0.38219800  1
  O  O45  1  0.37518500  0.01065000  0.89542900  1
  O  O46  1  0.86084800  0.48891000  0.60290600  1
  O  O47  1  0.65090500  0.99356900  0.11372800  1
  O  O48  1  0.19436400  0.19102400  0.38549200  1
  O  O49  1  0.33531100  0.69020900  0.89090400  1
  O  O50  1  0.78973000  0.80533200  0.61073400  1
  O  O51  1  0.66941900  0.32812800  0.10679600  1
  O  O52  1  0.66848800  0.68372300  0.39636600  1
  O  O53  1  0.83757600  0.17831400  0.89809700  1
  O  O54  1  0.32127500  0.31478100  0.59951100  1
  O  O55  1  0.18723100  0.81229400  0.10708900  1
