# generated using pymatgen
data_Al5HO8
_symmetry_space_group_name_H-M   'P 1'
_cell_length_a   5.63311861
_cell_length_b   5.63311861
_cell_length_c   8.84679000
_cell_angle_alpha   90.00000000
_cell_angle_beta   90.00000000
_cell_angle_gamma   120.00000722
_symmetry_Int_Tables_number   1
_chemical_formula_structural   Al5HO8
_chemical_formula_sum   'Al10 H2 O16'
_cell_volume   243.11631854
_cell_formula_units_Z   2
loop_
 _symmetry_equiv_pos_site_id
 _symmetry_equiv_pos_as_xyz
  1  'x, y, z'
loop_
 _atom_site_type_symbol
 _atom_site_label
 _atom_site_symmetry_multiplicity
 _atom_site_fract_x
 _atom_site_fract_y
 _atom_site_fract_z
 _atom_site_occupancy
  Al  Al0  1  0.83427000  0.16573000  0.86581300  1
  Al  Al1  1  0.83427000  0.66854100  0.86581300  1
  Al  Al2  1  0.33145900  0.16573000  0.86581300  1
  Al  Al3  1  0.16573000  0.83427000  0.36581300  1
  Al  Al4  1  0.16573000  0.33145900  0.36581300  1
  Al  Al5  1  0.66854100  0.83427000  0.36581300  1
  Al  Al6  1  0.33333300  0.66666700  0.66018900  1
  Al  Al7  1  0.66666700  0.33333300  0.16018900  1
  Al  Al8  1  0.66666700  0.33333300  0.54747100  1
  Al  Al9  1  0.33333300  0.66666700  0.04747100  1
  H  H10  1  0.00000000  0.00000000  0.59669200  1
  H  H11  1  0.00000000  0.00000000  0.09669200  1
  O  O12  1  0.00000000  0.00000000  0.48428600  1
  O  O13  1  0.00000000  0.00000000  0.98428600  1
  O  O14  1  0.48560300  0.51439700  0.50114700  1
  O  O15  1  0.48560300  0.97120500  0.50114700  1
  O  O16  1  0.02879500  0.51439700  0.50114700  1
  O  O17  1  0.51439700  0.48560300  0.00114700  1
  O  O18  1  0.51439700  0.02879500  0.00114700  1
  O  O19  1  0.97120500  0.48560300  0.00114700  1
  O  O20  1  0.66875200  0.83437600  0.76264500  1
  O  O21  1  0.16562400  0.83437600  0.76264500  1
  O  O22  1  0.16562400  0.33124800  0.76264500  1
  O  O23  1  0.33124800  0.16562400  0.26264500  1
  O  O24  1  0.83437600  0.16562400  0.26264500  1
  O  O25  1  0.83437600  0.66875200  0.26264500  1
  O  O26  1  0.66666700  0.33333300  0.75461400  1
  O  O27  1  0.33333300  0.66666700  0.25461400  1
