# generated using pymatgen
data_H5ClO6
_symmetry_space_group_name_H-M   'P 1'
_cell_length_a   6.11124400
_cell_length_b   7.25468400
_cell_length_c   10.80715800
_cell_angle_alpha   90.00000000
_cell_angle_beta   90.00000000
_cell_angle_gamma   90.00000000
_symmetry_Int_Tables_number   1
_chemical_formula_structural   H5ClO6
_chemical_formula_sum   'H20 Cl4 O24'
_cell_volume   479.13690688
_cell_formula_units_Z   4
loop_
 _symmetry_equiv_pos_site_id
 _symmetry_equiv_pos_as_xyz
  1  'x, y, z'
loop_
 _atom_site_type_symbol
 _atom_site_label
 _atom_site_symmetry_multiplicity
 _atom_site_fract_x
 _atom_site_fract_y
 _atom_site_fract_z
 _atom_site_occupancy
  H  H0  1  0.23198200  0.79227900  0.64540400  1
  H  H1  1  0.25200700  0.74702600  0.79108300  1
  H  H2  1  0.25236300  0.99003800  0.74820500  1
  H  H3  1  0.75200700  0.75297400  0.20891700  1
  H  H4  1  0.73198200  0.70772100  0.35459600  1
  H  H5  1  0.75236300  0.50996200  0.25179500  1
  H  H6  1  0.26801800  0.20772100  0.14540400  1
  H  H7  1  0.24763700  0.00996200  0.24820500  1
  H  H8  1  0.24799300  0.25297400  0.29108300  1
  H  H9  1  0.74763700  0.49003800  0.75179500  1
  H  H10  1  0.76801800  0.29227900  0.85459600  1
  H  H11  1  0.74799300  0.24702600  0.70891700  1
  H  H12  1  0.26310400  0.19775900  0.85290400  1
  H  H13  1  0.24530600  0.24239700  0.70860100  1
  H  H14  1  0.74530600  0.25760300  0.29139900  1
  H  H15  1  0.76310400  0.30224100  0.14709600  1
  H  H16  1  0.23689600  0.80224100  0.35290400  1
  H  H17  1  0.25469400  0.75760300  0.20860100  1
  H  H18  1  0.73689600  0.69775900  0.64709600  1
  H  H19  1  0.75469400  0.74239700  0.79139900  1
  Cl  Cl20  1  0.17219400  0.49958500  0.50073500  1
  Cl  Cl21  1  0.67219400  0.00041500  0.49926500  1
  Cl  Cl22  1  0.32780600  0.50041500  0.00073500  1
  Cl  Cl23  1  0.82780600  0.99958500  0.99926500  1
  O  O24  1  0.15510600  0.70499600  0.50152100  1
  O  O25  1  0.65510600  0.79500400  0.49847900  1
  O  O26  1  0.34489400  0.29500400  0.00152100  1
  O  O27  1  0.84489400  0.20499600  0.99847900  1
  O  O28  1  0.95551600  0.42008900  0.50121800  1
  O  O29  1  0.45551600  0.07991100  0.49878200  1
  O  O30  1  0.54448400  0.57991100  0.00121800  1
  O  O31  1  0.04448400  0.92008900  0.99878200  1
  O  O32  1  0.29437500  0.44490300  0.61082200  1
  O  O33  1  0.79437500  0.05509700  0.38917800  1
  O  O34  1  0.20562500  0.55509700  0.11082200  1
  O  O35  1  0.70562500  0.94490300  0.88917800  1
  O  O36  1  0.20830700  0.55215900  0.88893600  1
  O  O37  1  0.70830700  0.94784100  0.11106400  1
  O  O38  1  0.29169300  0.44784100  0.38893600  1
  O  O39  1  0.79169300  0.05215900  0.61106400  1
  O  O40  1  0.29593700  0.83550500  0.72546200  1
  O  O41  1  0.79593700  0.66449500  0.27453800  1
  O  O42  1  0.20406300  0.16449500  0.22546200  1
  O  O43  1  0.70406300  0.33550500  0.77453800  1
  O  O44  1  0.20328500  0.15249700  0.77328400  1
  O  O45  1  0.70328500  0.34750300  0.22671600  1
  O  O46  1  0.29671500  0.84750300  0.27328400  1
  O  O47  1  0.79671500  0.65249700  0.72671600  1
