# generated using pymatgen
data_Ca(H8O5)2
_symmetry_space_group_name_H-M   'P 1'
_cell_length_a   6.15112500
_cell_length_b   6.30743356
_cell_length_c   10.95392081
_cell_angle_alpha   89.54528063
_cell_angle_beta   88.80334628
_cell_angle_gamma   89.77059584
_symmetry_Int_Tables_number   1
_chemical_formula_structural   Ca(H8O5)2
_chemical_formula_sum   'Ca2 H32 O20'
_cell_volume   424.87896297
_cell_formula_units_Z   2
loop_
 _symmetry_equiv_pos_site_id
 _symmetry_equiv_pos_as_xyz
  1  'x, y, z'
loop_
 _atom_site_type_symbol
 _atom_site_label
 _atom_site_symmetry_multiplicity
 _atom_site_fract_x
 _atom_site_fract_y
 _atom_site_fract_z
 _atom_site_occupancy
  Ca  Ca0  1  0.02357100  0.00393200  0.74222300  1
  Ca  Ca1  1  0.99122600  0.00302300  0.24619500  1
  H  H2  1  0.39165300  0.28490800  0.64273900  1
  H  H3  1  0.31020000  0.14564900  0.52922900  1
  H  H4  1  0.63482000  0.74092100  0.65241300  1
  H  H5  1  0.56978200  0.97849100  0.62677000  1
  H  H6  1  0.27931700  0.61736800  0.64619600  1
  H  H7  1  0.13492500  0.69903500  0.53310700  1
  H  H8  1  0.72464600  0.38615700  0.65273000  1
  H  H9  1  0.97025900  0.45338200  0.62669700  1
  H  H10  1  0.43384800  0.96943500  0.12792800  1
  H  H11  1  0.36631000  0.72928700  0.14133200  1
  H  H12  1  0.60957100  0.26946000  0.14461800  1
  H  H13  1  0.69291400  0.12993200  0.03244800  1
  H  H14  1  0.14535700  0.28781100  0.03991300  1
  H  H15  1  0.27135000  0.38733000  0.15101600  1
  H  H16  1  0.71813700  0.61664500  0.13810900  1
  H  H17  1  0.96656200  0.55327500  0.12541300  1
  H  H18  1  0.61026100  0.72575700  0.34673600  1
  H  H19  1  0.69631400  0.86128800  0.45938300  1
  H  H20  1  0.37508600  0.27534000  0.35005800  1
  H  H21  1  0.43912900  0.03321100  0.36697800  1
  H  H22  1  0.85938300  0.30598000  0.46098000  1
  H  H23  1  0.72149600  0.38830000  0.34758200  1
  H  H24  1  0.27229300  0.62338600  0.34979200  1
  H  H25  1  0.02578600  0.56060900  0.36663000  1
  H  H26  1  0.57753000  0.03000800  0.86521200  1
  H  H27  1  0.60958700  0.27862700  0.85576900  1
  H  H28  1  0.40189500  0.71928000  0.85110600  1
  H  H29  1  0.31091100  0.87875600  0.95105900  1
  H  H30  1  0.90624300  0.59193300  0.83347500  1
  H  H31  1  0.87560000  0.70644000  0.96247600  1
  H  H32  1  0.27775500  0.37824300  0.84737700  1
  H  H33  1  0.99978900  0.33962500  0.89017700  1
  O  O34  1  0.49308600  0.50092000  0.68687500  1
  O  O35  1  0.49375700  0.50209700  0.17767500  1
  O  O36  1  0.49586700  0.50322600  0.31406200  1
  O  O37  1  0.45776900  0.47874800  0.82149000  1
  O  O38  1  0.33327200  0.13898300  0.61936500  1
  O  O39  1  0.69647600  0.87857100  0.62105700  1
  O  O40  1  0.13142800  0.68203200  0.62395500  1
  O  O41  1  0.87297200  0.32659300  0.62743100  1
  O  O42  1  0.30489000  0.87445400  0.12161300  1
  O  O43  1  0.67161400  0.12459100  0.12358100  1
  O  O44  1  0.12611500  0.32070800  0.12874600  1
  O  O45  1  0.86728900  0.67829300  0.11594400  1
  O  O46  1  0.67207800  0.86972800  0.36964900  1
  O  O47  1  0.31140000  0.13165100  0.37271600  1
  O  O48  1  0.86722800  0.32280700  0.37067800  1
  O  O49  1  0.12369800  0.68591100  0.37274300  1
  O  O50  1  0.69230800  0.14215300  0.87489500  1
  O  O51  1  0.35399300  0.87312200  0.86351300  1
  O  O52  1  0.88723400  0.72956800  0.87177700  1
  O  O53  1  0.13994700  0.26926700  0.88328500  1
