# generated using pymatgen
data_Ca(H8O5)2
_symmetry_space_group_name_H-M   'P 1'
_cell_length_a   6.16485400
_cell_length_b   6.23380534
_cell_length_c   11.41764596
_cell_angle_alpha   96.89289035
_cell_angle_beta   90.00989585
_cell_angle_gamma   90.11398860
_symmetry_Int_Tables_number   1
_chemical_formula_structural   Ca(H8O5)2
_chemical_formula_sum   'Ca2 H32 O20'
_cell_volume   435.61350285
_cell_formula_units_Z   2
loop_
 _symmetry_equiv_pos_site_id
 _symmetry_equiv_pos_as_xyz
  1  'x, y, z'
loop_
 _atom_site_type_symbol
 _atom_site_label
 _atom_site_symmetry_multiplicity
 _atom_site_fract_x
 _atom_site_fract_y
 _atom_site_fract_z
 _atom_site_occupancy
  Ca  Ca0  1  0.99280900  0.98374500  0.51602600  1
  Ca  Ca1  1  0.00923600  0.97831000  0.01634700  1
  H  H2  1  0.38575800  0.93109100  0.36588100  1
  H  H3  1  0.36356000  0.68979000  0.39802300  1
  H  H4  1  0.72697500  0.08325000  0.29688300  1
  H  H5  1  0.63834800  0.26942400  0.39604600  1
  H  H6  1  0.04080000  0.31889400  0.35372200  1
  H  H7  1  0.29045400  0.34737900  0.39419100  1
  H  H8  1  0.86223900  0.67887600  0.30492900  1
  H  H9  1  0.70815900  0.60325400  0.40417500  1
  H  H10  1  0.27379500  0.08037900  0.79712400  1
  H  H11  1  0.36153500  0.26643700  0.89661400  1
  H  H12  1  0.61740700  0.93140400  0.86729700  1
  H  H13  1  0.63689400  0.68954200  0.89924600  1
  H  H14  1  0.13557400  0.66662300  0.80490600  1
  H  H15  1  0.29146800  0.59905200  0.90525800  1
  H  H16  1  0.95955600  0.31967500  0.85659000  1
  H  H17  1  0.70922100  0.34678500  0.89484700  1
  H  H18  1  0.72944900  0.18962800  0.71614700  1
  H  H19  1  0.61308600  0.28712700  0.60683500  1
  H  H20  1  0.37336200  0.74555400  0.61150600  1
  H  H21  1  0.44421000  0.99025800  0.63085400  1
  H  H22  1  0.81498700  0.74703300  0.72527300  1
  H  H23  1  0.71893900  0.62589300  0.60779600  1
  H  H24  1  0.26411200  0.38919100  0.60224900  1
  H  H25  1  0.02033700  0.45225700  0.63058200  1
  H  H26  1  0.55938400  0.98498900  0.13191500  1
  H  H27  1  0.62907100  0.74040200  0.11311200  1
  H  H28  1  0.27291000  0.18464800  0.21624200  1
  H  H29  1  0.38994600  0.28227600  0.10724500  1
  H  H30  1  0.73851300  0.38298000  0.10377700  1
  H  H31  1  0.98218300  0.44703200  0.13178200  1
  H  H32  1  0.18753000  0.74448400  0.22548800  1
  H  H33  1  0.28346500  0.62092800  0.10866200  1
  O  O34  1  0.49049300  0.48901700  0.43660300  1
  O  O35  1  0.50968400  0.48777600  0.93748200  1
  O  O36  1  0.49397100  0.50682100  0.56809800  1
  O  O37  1  0.50734800  0.50319300  0.06894500  1
  O  O38  1  0.27988900  0.81519100  0.36879800  1
  O  O39  1  0.72226200  0.12897200  0.38186900  1
  O  O40  1  0.17654600  0.23915600  0.35736900  1
  O  O41  1  0.85652900  0.66856000  0.38894700  1
  O  O42  1  0.27758200  0.12578100  0.88214000  1
  O  O43  1  0.72174200  0.81460200  0.87017800  1
  O  O44  1  0.14276900  0.66262600  0.88945700  1
  O  O45  1  0.82304500  0.23972600  0.85753400  1
  O  O46  1  0.67574300  0.15026400  0.63331300  1
  O  O47  1  0.31301200  0.89609000  0.63365200  1
  O  O48  1  0.85813900  0.69845800  0.64202200  1
  O  O49  1  0.12021700  0.32663800  0.62410300  1
  O  O50  1  0.69011300  0.89097400  0.13525800  1
  O  O51  1  0.32788100  0.14492100  0.13378600  1
  O  O52  1  0.88293300  0.32045900  0.12413200  1
  O  O53  1  0.14419600  0.69377100  0.14236200  1
