# generated using pymatgen
data_Ca(H8O5)2
_symmetry_space_group_name_H-M   'P 1'
_cell_length_a   6.51461000
_cell_length_b   6.53775720
_cell_length_c   11.24267653
_cell_angle_alpha   83.86397254
_cell_angle_beta   83.13601300
_cell_angle_gamma   81.49729771
_symmetry_Int_Tables_number   1
_chemical_formula_structural   Ca(H8O5)2
_chemical_formula_sum   'Ca2 H32 O20'
_cell_volume   468.23407233
_cell_formula_units_Z   2
loop_
 _symmetry_equiv_pos_site_id
 _symmetry_equiv_pos_as_xyz
  1  'x, y, z'
loop_
 _atom_site_type_symbol
 _atom_site_label
 _atom_site_symmetry_multiplicity
 _atom_site_fract_x
 _atom_site_fract_y
 _atom_site_fract_z
 _atom_site_occupancy
  Ca  Ca0  1  0.02818600  0.01520700  0.75653200  1
  Ca  Ca1  1  0.01955100  0.04255600  0.26184600  1
  H  H2  1  0.27047100  0.64424000  0.65062400  1
  H  H3  1  0.12850500  0.71953500  0.54747600  1
  H  H4  1  0.72093600  0.36387600  0.64686600  1
  H  H5  1  0.85711300  0.27995200  0.53127500  1
  H  H6  1  0.71050200  0.01003200  0.61436800  1
  H  H7  1  0.58387100  0.68950900  0.66896700  1
  H  H8  1  0.31635400  0.26250300  0.62392800  1
  H  H9  1  0.44983800  0.01575300  0.60778500  1
  H  H10  1  0.68515800  0.58251500  0.16472200  1
  H  H11  1  0.98884500  0.71452700  0.11753200  1
  H  H12  1  0.26738300  0.33207700  0.12161700  1
  H  H13  1  0.01804300  0.44943900  0.10613500  1
  H  H14  1  0.35813500  0.72058800  0.15026900  1
  H  H15  1  0.26459900  0.85512900  0.03850900  1
  H  H16  1  0.64628300  0.26786000  0.15015400  1
  H  H17  1  0.71921600  0.11990800  0.04896500  1
  H  H18  1  0.95645400  0.41227700  0.34844200  1
  H  H19  1  0.70171600  0.40416400  0.35340300  1
  H  H20  1  0.27640400  0.62285000  0.35617700  1
  H  H21  1  0.01489000  0.66936700  0.38119700  1
  H  H22  1  0.37580700  0.26573400  0.33976100  1
  H  H23  1  0.28347800  0.13318800  0.45392300  1
  H  H24  1  0.61169800  0.87297900  0.33860000  1
  H  H25  1  0.69315900  0.87309200  0.46642200  1
  H  H26  1  0.13045800  0.28558900  0.95060100  1
  H  H27  1  0.26049800  0.38218800  0.83730300  1
  H  H28  1  0.84675500  0.61604100  0.83528200  1
  H  H29  1  0.86413800  0.69446100  0.96202300  1
  H  H30  1  0.64245500  0.03051300  0.87097600  1
  H  H31  1  0.61104700  0.28900900  0.85462400  1
  H  H32  1  0.38905000  0.72544900  0.85782400  1
  H  H33  1  0.36242700  0.98557700  0.86708000  1
  O  O34  1  0.52629700  0.54770700  0.68572300  1
  O  O35  1  0.53992400  0.52463600  0.18337300  1
  O  O36  1  0.49573700  0.48817600  0.31608100  1
  O  O37  1  0.48049400  0.51019000  0.81834400  1
  O  O38  1  0.12720900  0.71202800  0.63597600  1
  O  O39  1  0.83106000  0.24863000  0.62012000  1
  O  O40  1  0.62455400  0.90236300  0.60322900  1
  O  O41  1  0.28967900  0.12486700  0.61024700  1
  O  O42  1  0.89210400  0.62248500  0.09968600  1
  O  O43  1  0.13054500  0.29712700  0.11117700  1
  O  O44  1  0.24116000  0.83147700  0.12777800  1
  O  O45  1  0.71814000  0.12554200  0.13624400  1
  O  O46  1  0.84878200  0.32496500  0.37668100  1
  O  O47  1  0.14702100  0.72070100  0.38715100  1
  O  O48  1  0.29094000  0.14870500  0.36391200  1
  O  O49  1  0.74134400  0.85909500  0.37666400  1
  O  O50  1  0.15253600  0.28583900  0.86128300  1
  O  O51  1  0.84669400  0.74288700  0.87332600  1
  O  O52  1  0.70481400  0.15430700  0.88062600  1
  O  O53  1  0.29510400  0.86036300  0.88489400  1
