# generated using pymatgen
data_Sr(H8O5)2
_symmetry_space_group_name_H-M   'P 1'
_cell_length_a   6.25605700
_cell_length_b   6.51819295
_cell_length_c   11.20786687
_cell_angle_alpha   89.45230928
_cell_angle_beta   89.53021284
_cell_angle_gamma   87.90665651
_symmetry_Int_Tables_number   1
_chemical_formula_structural   Sr(H8O5)2
_chemical_formula_sum   'Sr2 H32 O20'
_cell_volume   456.69652226
_cell_formula_units_Z   2
loop_
 _symmetry_equiv_pos_site_id
 _symmetry_equiv_pos_as_xyz
  1  'x, y, z'
loop_
 _atom_site_type_symbol
 _atom_site_label
 _atom_site_symmetry_multiplicity
 _atom_site_fract_x
 _atom_site_fract_y
 _atom_site_fract_z
 _atom_site_occupancy
  Sr  Sr0  1  0.00681900  0.99798200  0.74900200  1
  Sr  Sr1  1  0.99665200  0.99743700  0.24917100  1
  H  H2  1  0.44558000  0.07799200  0.63259000  1
  H  H3  1  0.29454600  0.13145800  0.52495700  1
  H  H4  1  0.63534900  0.75415400  0.64698600  1
  H  H5  1  0.68900400  0.88786700  0.53149700  1
  H  H6  1  0.28232400  0.59107300  0.64376400  1
  H  H7  1  0.12903800  0.68344700  0.54433500  1
  H  H8  1  0.97105900  0.42912800  0.63426500  1
  H  H9  1  0.66231300  0.42646800  0.66107300  1
  H  H10  1  0.86781500  0.31996200  0.52390100  1
  H  H11  1  0.39884100  0.72666500  0.14937900  1
  H  H12  1  0.45726600  0.96084400  0.12990900  1
  H  H13  1  0.61060700  0.26920100  0.14614600  1
  H  H14  1  0.67994200  0.13707900  0.03050300  1
  H  H15  1  0.04051100  0.45304900  0.12786500  1
  H  H16  1  0.27867700  0.37831500  0.14979500  1
  H  H17  1  0.73777500  0.60852400  0.14730000  1
  H  H18  1  0.87013600  0.68698200  0.03411000  1
  H  H19  1  0.61524100  0.75145100  0.35917200  1
  H  H20  1  0.50876700  0.97955800  0.37698200  1
  H  H21  1  0.37734300  0.24944300  0.35977600  1
  H  H22  1  0.69083100  0.42374800  0.33808300  1
  H  H23  1  0.05625800  0.27333600  0.39498600  1
  H  H24  1  0.02847100  0.55391100  0.38358000  1
  H  H25  1  0.26585100  0.62950200  0.36802100  1
  H  H26  1  0.54763600  0.03412800  0.87032900  1
  H  H27  1  0.61042300  0.26939200  0.85276400  1
  H  H28  1  0.39836800  0.72291600  0.85505000  1
  H  H29  1  0.32440000  0.85783800  0.96766100  1
  H  H30  1  0.97018000  0.55351700  0.87177400  1
  H  H31  1  0.72575200  0.61471100  0.86141300  1
  H  H32  1  0.27332100  0.38507000  0.84551500  1
  H  H33  1  0.14526800  0.31646500  0.96213400  1
  O  O34  1  0.53511200  0.52662600  0.68692000  1
  O  O35  1  0.52049300  0.49495900  0.19049100  1
  O  O36  1  0.54296100  0.49318900  0.32240900  1
  O  O37  1  0.51167600  0.49878300  0.81747800  1
  O  O38  1  0.30055000  0.13325800  0.61604700  1
  O  O39  1  0.69302300  0.88915400  0.62089700  1
  O  O40  1  0.13479400  0.65236000  0.63148300  1
  O  O41  1  0.86377400  0.32280500  0.61894300  1
  O  O42  1  0.33716900  0.86377900  0.12216500  1
  O  O43  1  0.66713600  0.12902500  0.11976200  1
  O  O44  1  0.13957100  0.32857200  0.12025000  1
  O  O45  1  0.87803300  0.67104300  0.12324200  1
  O  O46  1  0.65230700  0.89355200  0.37869800  1
  O  O47  1  0.30011200  0.12502700  0.37935800  1
  O  O48  1  0.90999100  0.34057500  0.39356400  1
  O  O49  1  0.12032900  0.68265600  0.38475900  1
  O  O50  1  0.66894200  0.12886200  0.87862200  1
  O  O51  1  0.33810900  0.86342600  0.87861400  1
  O  O52  1  0.86831600  0.67429400  0.88216000  1
  O  O53  1  0.13289300  0.32941000  0.87348700  1
