# generated using pymatgen
data_Ba(H8O5)2
_symmetry_space_group_name_H-M   'P 1'
_cell_length_a   6.63625900
_cell_length_b   6.63664067
_cell_length_c   11.26091225
_cell_angle_alpha   90.09945065
_cell_angle_beta   91.72932538
_cell_angle_gamma   93.06695026
_symmetry_Int_Tables_number   1
_chemical_formula_structural   Ba(H8O5)2
_chemical_formula_sum   'Ba2 H32 O20'
_cell_volume   495.01963532
_cell_formula_units_Z   2
loop_
 _symmetry_equiv_pos_site_id
 _symmetry_equiv_pos_as_xyz
  1  'x, y, z'
loop_
 _atom_site_type_symbol
 _atom_site_label
 _atom_site_symmetry_multiplicity
 _atom_site_fract_x
 _atom_site_fract_y
 _atom_site_fract_z
 _atom_site_occupancy
  Ba  Ba0  1  0.00427300  0.99149700  0.50058500  1
  Ba  Ba1  1  0.01258500  0.00301800  0.00039800  1
  H  H2  1  0.61488300  0.56128900  0.57252800  1
  H  H3  1  0.34904000  0.57626100  0.04722700  1
  H  H4  1  0.25886500  0.40777400  0.37833800  1
  H  H5  1  0.10698700  0.31646300  0.27773000  1
  H  H6  1  0.93057300  0.56369300  0.35051700  1
  H  H7  1  0.70248700  0.61346300  0.37633100  1
  H  H8  1  0.63313500  0.24408700  0.33844000  1
  H  H9  1  0.62253800  0.11249300  0.45738100  1
  H  H10  1  0.40534900  0.95806400  0.34031500  1
  H  H11  1  0.37069600  0.72965600  0.37938000  1
  H  H12  1  0.74126700  0.39567600  0.87126300  1
  H  H13  1  0.90293900  0.38290500  0.97233200  1
  H  H14  1  0.21410900  0.72917200  0.78432200  1
  H  H15  1  0.05336200  0.57826200  0.85079400  1
  H  H16  1  0.36778100  0.08484000  0.80650500  1
  H  H17  1  0.37779500  0.31115600  0.86901000  1
  H  H18  1  0.61308200  0.89929000  0.79715000  1
  H  H19  1  0.59721600  0.69415000  0.87397600  1
  H  H20  1  0.81978900  0.69029900  0.71906400  1
  H  H21  1  0.93395100  0.53035800  0.64457400  1
  H  H22  1  0.16640400  0.28789100  0.71806300  1
  H  H23  1  0.24620600  0.39978800  0.60374400  1
  H  H24  1  0.46275000  0.96534700  0.62366500  1
  H  H25  1  0.37103800  0.73733900  0.60860600  1
  H  H26  1  0.61070600  0.22394000  0.61516500  1
  H  H27  1  0.19255800  0.71539000  0.20286400  1
  H  H28  1  0.04797700  0.54180700  0.12222200  1
  H  H29  1  0.78675500  0.39874200  0.12565300  1
  H  H30  1  0.71458500  0.81874500  0.20754400  1
  H  H31  1  0.60757400  0.76404300  0.08461000  1
  H  H32  1  0.40708000  0.27773300  0.10130000  1
  H  H33  1  0.46318400  0.06178100  0.14623700  1
  O  O34  1  0.47800700  0.52965000  0.41257900  1
  O  O35  1  0.49847700  0.48867100  0.90448600  1
  O  O36  1  0.47291700  0.51895700  0.54402600  1
  O  O37  1  0.48349000  0.51390700  0.03470800  1
  O  O38  1  0.11681700  0.34725500  0.36310500  1
  O  O39  1  0.83797400  0.67577900  0.35212600  1
  O  O40  1  0.64976100  0.10703000  0.36683300  1
  O  O41  1  0.29481100  0.85240100  0.34990400  1
  O  O42  1  0.88562300  0.36353700  0.88127300  1
  O  O43  1  0.11583800  0.71766700  0.84779800  1
  O  O44  1  0.28287000  0.18616400  0.83802000  1
  O  O45  1  0.68577500  0.82371500  0.85738700  1
  O  O46  1  0.83696300  0.64026500  0.63752700  1
  O  O47  1  0.12099700  0.34198000  0.63860300  1
  O  O48  1  0.33372000  0.86553700  0.64583400  1
  O  O49  1  0.63649400  0.08544700  0.59451100  1
  O  O50  1  0.15510100  0.67267700  0.12114100  1
  O  O51  1  0.92478500  0.36554000  0.10995900  1
  O  O52  1  0.67036600  0.87874000  0.13150200  1
  O  O53  1  0.34969800  0.15051600  0.13650800  1
