# generated using pymatgen
data_Sr(H8O5)2
_symmetry_space_group_name_H-M   'P 1'
_cell_length_a   6.33863000
_cell_length_b   6.37930330
_cell_length_c   11.40952375
_cell_angle_alpha   88.10632561
_cell_angle_beta   88.76265000
_cell_angle_gamma   87.84462073
_symmetry_Int_Tables_number   1
_chemical_formula_structural   Sr(H8O5)2
_chemical_formula_sum   'Sr2 H32 O20'
_cell_volume   460.68213745
_cell_formula_units_Z   2
loop_
 _symmetry_equiv_pos_site_id
 _symmetry_equiv_pos_as_xyz
  1  'x, y, z'
loop_
 _atom_site_type_symbol
 _atom_site_label
 _atom_site_symmetry_multiplicity
 _atom_site_fract_x
 _atom_site_fract_y
 _atom_site_fract_z
 _atom_site_occupancy
  Sr  Sr0  1  0.01725500  0.01131400  0.51774700  1
  Sr  Sr1  1  0.99058100  0.00132800  0.01082900  1
  H  H2  1  0.53109000  0.65061300  0.48360500  1
  H  H3  1  0.72479600  0.37556900  0.62016700  1
  H  H4  1  0.83521000  0.26566600  0.72609600  1
  H  H5  1  0.26310100  0.60167900  0.63777600  1
  H  H6  1  0.02443600  0.54557500  0.63666700  1
  H  H7  1  0.46559100  0.98469500  0.61782100  1
  H  H8  1  0.38547100  0.22069000  0.63192000  1
  H  H9  1  0.68062800  0.74347500  0.62720100  1
  H  H10  1  0.19042400  0.25784300  0.22112600  1
  H  H11  1  0.26728000  0.37704300  0.10502300  1
  H  H12  1  0.94547300  0.54508000  0.14534800  1
  H  H13  1  0.71467900  0.60480800  0.10447500  1
  H  H14  1  0.69977500  0.15945400  0.21120600  1
  H  H15  1  0.59358600  0.27635100  0.09966100  1
  H  H16  1  0.41724000  0.93327900  0.14829500  1
  H  H17  1  0.37525600  0.70373500  0.10724900  1
  H  H18  1  0.22376400  0.61827700  0.40843400  1
  H  H19  1  0.17290100  0.73405900  0.28706300  1
  H  H20  1  0.93103300  0.44409900  0.35267900  1
  H  H21  1  0.71272800  0.38260800  0.40529700  1
  H  H22  1  0.70689200  0.80094600  0.29874000  1
  H  H23  1  0.65981200  0.86261300  0.43843700  1
  H  H24  1  0.42212100  0.05321500  0.34810300  1
  H  H25  1  0.36433900  0.27720800  0.39606100  1
  H  H26  1  0.93513100  0.67139700  0.83000300  1
  H  H27  1  0.70520500  0.64373400  0.88866200  1
  H  H28  1  0.12488500  0.31850600  0.80855400  1
  H  H29  1  0.28917100  0.38511700  0.90187200  1
  H  H30  1  0.30214900  0.91574300  0.79861100  1
  H  H31  1  0.36805900  0.72127600  0.88778300  1
  H  H32  1  0.63991500  0.07376900  0.83081400  1
  H  H33  1  0.63298000  0.30831700  0.88468100  1
  O  O34  1  0.48443100  0.44801700  0.60536800  1
  O  O35  1  0.49278300  0.49326100  0.05754200  1
  O  O36  1  0.47697100  0.50598600  0.47820700  1
  O  O37  1  0.50322300  0.49764100  0.92659700  1
  O  O38  1  0.87246600  0.31941700  0.64417200  1
  O  O39  1  0.11693600  0.66804500  0.63728000  1
  O  O40  1  0.33614900  0.07233800  0.64611400  1
  O  O41  1  0.66644000  0.85870600  0.56912900  1
  O  O42  1  0.13992900  0.31087800  0.14381700  1
  O  O43  1  0.84266200  0.66604700  0.13964800  1
  O  O44  1  0.65592500  0.13434200  0.13103600  1
  O  O45  1  0.30411700  0.83036000  0.14658900  1
  O  O46  1  0.10891200  0.69097200  0.36424100  1
  O  O47  1  0.84521100  0.32117100  0.37199500  1
  O  O48  1  0.64153000  0.90468500  0.35130900  1
  O  O49  1  0.30003400  0.15577200  0.36235800  1
  O  O50  1  0.81393700  0.74907700  0.86340600  1
  O  O51  1  0.14689100  0.31836900  0.89229100  1
  O  O52  1  0.28499600  0.85820100  0.87895600  1
  O  O53  1  0.72998600  0.18633300  0.85303300  1
