# generated using pymatgen
data_Al(HO)3
_symmetry_space_group_name_H-M   'P 1'
_cell_length_a   5.10821900
_cell_length_b   6.63794378
_cell_length_c   6.64414886
_cell_angle_alpha   83.00702384
_cell_angle_beta   82.68798630
_cell_angle_gamma   79.99416125
_symmetry_Int_Tables_number   1
_chemical_formula_structural   Al(HO)3
_chemical_formula_sum   'Al4 H12 O12'
_cell_volume   218.91157063
_cell_formula_units_Z   4
loop_
 _symmetry_equiv_pos_site_id
 _symmetry_equiv_pos_as_xyz
  1  'x, y, z'
loop_
 _atom_site_type_symbol
 _atom_site_label
 _atom_site_symmetry_multiplicity
 _atom_site_fract_x
 _atom_site_fract_y
 _atom_site_fract_z
 _atom_site_occupancy
  Al  Al0  1  0.53036000  0.16830900  0.83814800  1
  Al  Al1  1  0.47733400  0.83084100  0.16676700  1
  Al  Al2  1  0.01600500  0.33824600  0.66896100  1
  Al  Al3  1  0.98975300  0.66925600  0.33636500  1
  H  H4  1  0.36298600  0.10195600  0.55168700  1
  H  H5  1  0.80604900  0.03674700  0.20290600  1
  H  H6  1  0.62578300  0.48202700  0.31598900  1
  H  H7  1  0.38864200  0.52131300  0.69093000  1
  H  H8  1  0.21363300  0.30234000  0.29178300  1
  H  H9  1  0.76694700  0.70768800  0.70371100  1
  H  H10  1  0.87640500  0.85802100  0.92137000  1
  H  H11  1  0.13715800  0.13822500  0.05698100  1
  H  H12  1  0.77772700  0.10072000  0.49965900  1
  H  H13  1  0.24885000  0.86539000  0.53492400  1
  H  H14  1  0.23941200  0.60934500  0.98560700  1
  H  H15  1  0.77412400  0.39332600  0.02121000  1
  O  O16  1  0.26930200  0.08500300  0.68937800  1
  O  O17  1  0.74159600  0.92888800  0.30104600  1
  O  O18  1  0.71328200  0.57317900  0.21162200  1
  O  O19  1  0.29841100  0.43251500  0.79532300  1
  O  O20  1  0.17021000  0.39934800  0.39659000  1
  O  O21  1  0.83261500  0.60536800  0.60627900  1
  O  O22  1  0.68496500  0.88492400  0.90492900  1
  O  O23  1  0.32188700  0.11520600  0.09292500  1
  O  O24  1  0.74723700  0.20908500  0.59231400  1
  O  O25  1  0.25925800  0.79372600  0.41327900  1
  O  O26  1  0.19791600  0.71949900  0.07908800  1
  O  O27  1  0.81639600  0.27773200  0.93408200  1
