# generated using pymatgen
data_Al(HO)3
_symmetry_space_group_name_H-M   'P 1'
_cell_length_a   5.02426100
_cell_length_b   8.86071268
_cell_length_c   9.70958543
_cell_angle_alpha   90.98485239
_cell_angle_beta   90.05136188
_cell_angle_gamma   90.06486966
_symmetry_Int_Tables_number   1
_chemical_formula_structural   Al(HO)3
_chemical_formula_sum   'Al8 H24 O24'
_cell_volume   432.19218700
_cell_formula_units_Z   8
loop_
 _symmetry_equiv_pos_site_id
 _symmetry_equiv_pos_as_xyz
  1  'x, y, z'
loop_
 _atom_site_type_symbol
 _atom_site_label
 _atom_site_symmetry_multiplicity
 _atom_site_fract_x
 _atom_site_fract_y
 _atom_site_fract_z
 _atom_site_occupancy
  Al  Al0  1  0.98029700  0.67148500  0.49771100  1
  Al  Al1  1  0.53345500  0.16145500  0.99947000  1
  Al  Al2  1  0.03996400  0.33922400  0.50109900  1
  Al  Al3  1  0.47425400  0.82882400  0.00008600  1
  Al  Al4  1  0.48778900  0.84280100  0.49667300  1
  Al  Al5  1  0.02685400  0.33354500  0.99710200  1
  Al  Al6  1  0.53634700  0.16947300  0.50112600  1
  Al  Al7  1  0.97784900  0.65910800  0.99950300  1
  H  H8  1  0.37470700  0.59258800  0.37416800  1
  H  H9  1  0.13444200  0.08286000  0.87781500  1
  H  H10  1  0.61412700  0.40320500  0.62976700  1
  H  H11  1  0.90020400  0.89243400  0.12991800  1
  H  H12  1  0.84103200  0.19101100  0.29724000  1
  H  H13  1  0.67103700  0.68078100  0.79597900  1
  H  H14  1  0.05442200  0.92144900  0.60440100  1
  H  H15  1  0.46172900  0.41230000  0.10309300  1
  H  H16  1  0.17667000  0.02760200  0.39285100  1
  H  H17  1  0.33910900  0.51715100  0.89194000  1
  H  H18  1  0.61154200  0.99973200  0.70302000  1
  H  H19  1  0.90675000  0.49464200  0.20265600  1
  H  H20  1  0.69157600  0.46252100  0.38165700  1
  H  H21  1  0.81960400  0.95107200  0.88154800  1
  H  H22  1  0.12937500  0.51573100  0.70260300  1
  H  H23  1  0.38944900  0.00725900  0.20488000  1
  H  H24  1  0.78172400  0.79514400  0.29387700  1
  H  H25  1  0.72580800  0.29579900  0.79416400  1
  H  H26  1  0.22761000  0.20500300  0.70741800  1
  H  H27  1  0.28367500  0.70404800  0.20517700  1
  H  H28  1  0.34190300  0.31473800  0.29311000  1
  H  H29  1  0.16926400  0.80910200  0.79188200  1
  H  H30  1  0.51651000  0.60529400  0.60642500  1
  H  H31  1  0.99943700  0.09964100  0.11233300  1
  O  O32  1  0.29365200  0.69193400  0.38528000  1
  O  O33  1  0.21926900  0.18139000  0.88759600  1
  O  O34  1  0.72677300  0.31547400  0.61566500  1
  O  O35  1  0.78819800  0.80461700  0.11407600  1
  O  O36  1  0.85502900  0.18371900  0.39857500  1
  O  O37  1  0.65754900  0.67157800  0.89716600  1
  O  O38  1  0.16124400  0.82851200  0.60291300  1
  O  O39  1  0.35329200  0.31982100  0.10426800  1
  O  O40  1  0.37029200  0.01089100  0.38819800  1
  O  O41  1  0.14516600  0.50075200  0.88711500  1
  O  O42  1  0.64619000  0.99921600  0.60293100  1
  O  O43  1  0.86978500  0.49033100  0.10275400  1
  O  O44  1  0.87834400  0.49443500  0.39042200  1
  O  O45  1  0.63379900  0.98420800  0.89078100  1
  O  O46  1  0.15869100  0.51846600  0.60136100  1
  O  O47  1  0.35846300  0.00763500  0.10350000  1
  O  O48  1  0.79802500  0.81351300  0.39426000  1
  O  O49  1  0.71555300  0.30342000  0.89574900  1
  O  O50  1  0.22565800  0.20141200  0.60544000  1
  O  O51  1  0.28975000  0.69088700  0.10382100  1
  O  O52  1  0.36120800  0.33178900  0.39402400  1
  O  O53  1  0.15136300  0.82170700  0.89319400  1
  O  O54  1  0.65551000  0.68411000  0.60800600  1
  O  O55  1  0.85903100  0.17723200  0.10960800  1
