# generated using pymatgen
data_Ca(H8O5)2
_symmetry_space_group_name_H-M   'P 1'
_cell_length_a   6.20768200
_cell_length_b   6.35023696
_cell_length_c   10.83658523
_cell_angle_alpha   92.33123808
_cell_angle_beta   91.67711855
_cell_angle_gamma   90.81088999
_symmetry_Int_Tables_number   1
_chemical_formula_structural   Ca(H8O5)2
_chemical_formula_sum   'Ca2 H32 O20'
_cell_volume   426.59418190
_cell_formula_units_Z   2
loop_
 _symmetry_equiv_pos_site_id
 _symmetry_equiv_pos_as_xyz
  1  'x, y, z'
loop_
 _atom_site_type_symbol
 _atom_site_label
 _atom_site_symmetry_multiplicity
 _atom_site_fract_x
 _atom_site_fract_y
 _atom_site_fract_z
 _atom_site_occupancy
  Ca  Ca0  1  0.02090900  0.02339500  0.22524100  1
  Ca  Ca1  1  0.00665200  0.98886800  0.74081500  1
  H  H2  1  0.71571200  0.64545800  0.35243300  1
  H  H3  1  0.80314600  0.86470600  0.40409100  1
  H  H4  1  0.13512100  0.31930700  0.46412200  1
  H  H5  1  0.04012700  0.48222800  0.36920600  1
  H  H6  1  0.35052700  0.79378300  0.33790200  1
  H  H7  1  0.29804900  0.90004900  0.51807900  1
  H  H8  1  0.51466300  0.03569300  0.36297400  1
  H  H9  1  0.65133000  0.25750600  0.34329000  1
  H  H10  1  0.12783600  0.69261800  0.96656000  1
  H  H11  1  0.26780100  0.62937000  0.85010800  1
  H  H12  1  0.96797400  0.44096800  0.86183200  1
  H  H13  1  0.87977900  0.30243000  0.96973500  1
  H  H14  1  0.62952900  0.74379500  0.83598500  1
  H  H15  1  0.55851400  0.97983400  0.86009800  1
  H  H16  1  0.31536700  0.12816600  0.96543100  1
  H  H17  1  0.36032800  0.26305100  0.84580900  1
  H  H18  1  0.03554100  0.41746300  0.63224400  1
  H  H19  1  0.28581000  0.36336100  0.63456600  1
  H  H20  1  0.72652000  0.58099200  0.63433000  1
  H  H21  1  0.88936300  0.66008600  0.53658900  1
  H  H22  1  0.56350600  0.01954100  0.62488700  1
  H  H23  1  0.70742000  0.12445400  0.52736000  1
  H  H24  1  0.36982300  0.73789700  0.62600500  1
  H  H25  1  0.76060400  0.35714300  0.13123600  1
  H  H26  1  0.26743900  0.61864400  0.13860500  1
  H  H27  1  0.02490000  0.53365700  0.11939200  1
  H  H28  1  0.47223200  0.02594900  0.12383100  1
  H  H29  1  0.40265600  0.26975300  0.13508300  1
  H  H30  1  0.62953900  0.71871500  0.13507900  1
  H  H31  1  0.70563600  0.86033300  0.02394000  1
  H  H32  1  0.35937500  0.44045900  0.33215600  1
  H  H33  1  0.65388400  0.41463000  0.81307600  1
  O  O34  1  0.85185000  0.72193900  0.38035800  1
  O  O35  1  0.13127800  0.35749200  0.37388600  1
  O  O36  1  0.31629700  0.93653600  0.36743000  1
  O  O37  1  0.67981100  0.11107000  0.36537600  1
  O  O38  1  0.12637300  0.68373200  0.87267800  1
  O  O39  1  0.87194500  0.31681700  0.87191400  1
  O  O40  1  0.68675400  0.88567900  0.86456600  1
  O  O41  1  0.32076600  0.12096700  0.87135800  1
  O  O42  1  0.13584500  0.29541600  0.61916500  1
  O  O43  1  0.88391700  0.63078300  0.62549000  1
  O  O44  1  0.70905400  0.08283600  0.61499200  1
  O  O45  1  0.30735900  0.88127900  0.61130500  1
  O  O46  1  0.90534900  0.31262100  0.10879800  1
  O  O47  1  0.11833500  0.67223100  0.11888800  1
  O  O48  1  0.34508500  0.12029800  0.11300600  1
  O  O49  1  0.68934900  0.86166900  0.11544400  1
  O  O50  1  0.50759100  0.49442600  0.30656300  1
  O  O51  1  0.51676100  0.50050800  0.79556600  1
  O  O52  1  0.49056400  0.51217600  0.65934200  1
  O  O53  1  0.49468600  0.49688800  0.16996900  1
