# generated using pymatgen
data_Al(HO)3
_symmetry_space_group_name_H-M   'P 1'
_cell_length_a   5.23747900
_cell_length_b   8.78018400
_cell_length_c   9.42376400
_cell_angle_alpha   90.00000000
_cell_angle_beta   90.00000000
_cell_angle_gamma   90.00000000
_symmetry_Int_Tables_number   1
_chemical_formula_structural   Al(HO)3
_chemical_formula_sum   'Al8 H24 O24'
_cell_volume   433.36148757
_cell_formula_units_Z   8
loop_
 _symmetry_equiv_pos_site_id
 _symmetry_equiv_pos_as_xyz
  1  'x, y, z'
loop_
 _atom_site_type_symbol
 _atom_site_label
 _atom_site_symmetry_multiplicity
 _atom_site_fract_x
 _atom_site_fract_y
 _atom_site_fract_z
 _atom_site_occupancy
  Al  Al0  1  0.98308300  0.16940200  0.49820200  1
  Al  Al1  1  0.51691700  0.66940200  0.50179800  1
  Al  Al2  1  0.48308300  0.83059800  0.00179800  1
  Al  Al3  1  0.01691700  0.33059800  0.99820200  1
  Al  Al4  1  0.01691700  0.83059800  0.50179800  1
  Al  Al5  1  0.48308300  0.33059800  0.49820200  1
  Al  Al6  1  0.51691700  0.16940200  0.99820200  1
  Al  Al7  1  0.98308300  0.66940200  0.00179800  1
  H  H8  1  0.19815700  0.51236100  0.61388300  1
  H  H9  1  0.30184300  0.01236100  0.38611700  1
  H  H10  1  0.69815700  0.48763900  0.88611700  1
  H  H11  1  0.80184300  0.98763900  0.11388300  1
  H  H12  1  0.80184300  0.48763900  0.38611700  1
  H  H13  1  0.69815700  0.98763900  0.61388300  1
  H  H14  1  0.30184300  0.51236100  0.11388300  1
  H  H15  1  0.19815700  0.01236100  0.88611700  1
  H  H16  1  0.32299000  0.14653400  0.69465800  1
  H  H17  1  0.17701000  0.64653400  0.30534200  1
  H  H18  1  0.82299000  0.85346600  0.80534200  1
  H  H19  1  0.67701000  0.35346600  0.19465800  1
  H  H20  1  0.67701000  0.85346600  0.30534200  1
  H  H21  1  0.82299000  0.35346600  0.69465800  1
  H  H22  1  0.17701000  0.14653400  0.19465800  1
  H  H23  1  0.32299000  0.64653400  0.80534200  1
  H  H24  1  0.85452300  0.63508700  0.69874800  1
  H  H25  1  0.64547700  0.13508700  0.30125200  1
  H  H26  1  0.35452300  0.36491300  0.80125200  1
  H  H27  1  0.14547700  0.86491300  0.19874800  1
  H  H28  1  0.14547700  0.36491300  0.30125200  1
  H  H29  1  0.35452300  0.86491300  0.69874800  1
  H  H30  1  0.64547700  0.63508700  0.19874800  1
  H  H31  1  0.85452300  0.13508700  0.80125200  1
  O  O32  1  0.38381400  0.50437000  0.61753500  1
  O  O33  1  0.11618600  0.00437000  0.38246500  1
  O  O34  1  0.88381400  0.49563000  0.88246500  1
  O  O35  1  0.61618600  0.99563000  0.11753500  1
  O  O36  1  0.61618600  0.49563000  0.38246500  1
  O  O37  1  0.88381400  0.99563000  0.61753500  1
  O  O38  1  0.11618600  0.50437000  0.11753500  1
  O  O39  1  0.38381400  0.00437000  0.88246500  1
  O  O40  1  0.28353400  0.19228000  0.60367400  1
  O  O41  1  0.21646600  0.69228000  0.39632600  1
  O  O42  1  0.78353400  0.80772000  0.89632600  1
  O  O43  1  0.71646600  0.30772000  0.10367400  1
  O  O44  1  0.71646600  0.80772000  0.39632600  1
  O  O45  1  0.78353400  0.30772000  0.60367400  1
  O  O46  1  0.21646600  0.19228000  0.10367400  1
  O  O47  1  0.28353400  0.69228000  0.89632600  1
  O  O48  1  0.82982600  0.67773500  0.60433100  1
  O  O49  1  0.67017400  0.17773500  0.39566900  1
  O  O50  1  0.32982600  0.32226500  0.89566900  1
  O  O51  1  0.17017400  0.82226500  0.10433100  1
  O  O52  1  0.17017400  0.32226500  0.39566900  1
  O  O53  1  0.32982600  0.82226500  0.60433100  1
  O  O54  1  0.67017400  0.67773500  0.10433100  1
  O  O55  1  0.82982600  0.17773500  0.89566900  1
