# generated using pymatgen
data_Al(HO)3
_symmetry_space_group_name_H-M   'P 1'
_cell_length_a   5.12401400
_cell_length_b   8.75631881
_cell_length_c   9.35162042
_cell_angle_alpha   95.46127801
_cell_angle_beta   91.28208470
_cell_angle_gamma   90.52800459
_symmetry_Int_Tables_number   1
_chemical_formula_structural   Al(HO)3
_chemical_formula_sum   'Al8 H24 O24'
_cell_volume   417.54753737
_cell_formula_units_Z   8
loop_
 _symmetry_equiv_pos_site_id
 _symmetry_equiv_pos_as_xyz
  1  'x, y, z'
loop_
 _atom_site_type_symbol
 _atom_site_label
 _atom_site_symmetry_multiplicity
 _atom_site_fract_x
 _atom_site_fract_y
 _atom_site_fract_z
 _atom_site_occupancy
  Al  Al0  1  0.05591500  0.18957300  0.47815000  1
  Al  Al1  1  0.44293300  0.69256400  0.51483000  1
  Al  Al2  1  0.47227500  0.82436500  0.00664100  1
  Al  Al3  1  0.03592800  0.32401900  0.99928200  1
  Al  Al4  1  0.99658800  0.85714600  0.51182000  1
  Al  Al5  1  0.51017700  0.35673000  0.48187400  1
  Al  Al6  1  0.51487000  0.15546200  0.99959000  1
  Al  Al7  1  0.98079500  0.65815300  0.00204300  1
  H  H8  1  0.19026600  0.49108500  0.35041100  1
  H  H9  1  0.33482500  0.00872300  0.61290100  1
  H  H10  1  0.70031900  0.46814500  0.12837500  1
  H  H11  1  0.83051600  0.96251900  0.90132300  1
  H  H12  1  0.83492100  0.55729800  0.60839700  1
  H  H13  1  0.67872300  0.02667000  0.37966600  1
  H  H14  1  0.30322100  0.52106300  0.86840900  1
  H  H15  1  0.36785300  0.03949200  0.21720100  1
  H  H16  1  0.86609800  0.89459100  0.17985200  1
  H  H17  1  0.63254200  0.39744100  0.88044400  1
  H  H18  1  0.66309400  0.87888100  0.70873300  1
  H  H19  1  0.81147700  0.29453800  0.28682800  1
  H  H20  1  0.16754300  0.11756700  0.79305700  1
  H  H21  1  0.35750400  0.59964400  0.15918400  1
  H  H22  1  0.84181100  0.58964300  0.36384300  1
  H  H23  1  0.76445600  0.73234600  0.27552500  1
  H  H24  1  0.66695000  0.10091300  0.61216300  1
  H  H25  1  0.72660800  0.24748300  0.72722100  1
  H  H26  1  0.33614300  0.28904200  0.20989900  1
  H  H27  1  0.16253800  0.77038700  0.78708000  1
  H  H28  1  0.18801300  0.37572700  0.69924800  1
  H  H29  1  0.26976300  0.78357500  0.29058200  1
  H  H30  1  0.65011900  0.63570200  0.79733300  1
  H  H31  1  0.94226200  0.10629300  0.14226100  1
  O  O32  1  0.36923700  0.51768200  0.38150600  1
  O  O33  1  0.15055800  0.03675100  0.60982300  1
  O  O34  1  0.88328600  0.49322200  0.11274900  1
  O  O35  1  0.64017800  0.97214100  0.89264800  1
  O  O36  1  0.64436500  0.53876300  0.60436700  1
  O  O37  1  0.86799800  0.01190700  0.38633700  1
  O  O38  1  0.12622500  0.48778000  0.88761300  1
  O  O39  1  0.37531000  0.00744700  0.11307100  1
  O  O40  1  0.34293800  0.19938400  0.37040900  1
  O  O41  1  0.15413300  0.71975600  0.62017100  1
  O  O42  1  0.78739500  0.80321100  0.12666900  1
  O  O43  1  0.70991900  0.29597600  0.88246200  1
  O  O44  1  0.66237400  0.86410100  0.60295700  1
  O  O45  1  0.83535200  0.33503800  0.38860800  1
  O  O46  1  0.20989000  0.17124500  0.88818100  1
  O  O47  1  0.28785200  0.69186300  0.12196200  1
  O  O48  1  0.78632900  0.69713600  0.37726800  1
  O  O49  1  0.72042600  0.20945500  0.61657100  1
  O  O50  1  0.35272200  0.32162800  0.10951900  1
  O  O51  1  0.15757500  0.80066400  0.89733200  1
  O  O52  1  0.21815100  0.34520700  0.59785100  1
  O  O53  1  0.29030700  0.82669100  0.39179100  1
  O  O54  1  0.64987600  0.65268600  0.90290900  1
  O  O55  1  0.83996400  0.18963600  0.10838000  1
