# generated using pymatgen
data_LaSiBO5
_symmetry_space_group_name_H-M   'P 1'
_cell_length_a   6.88307045
_cell_length_b   6.88307045
_cell_length_c   6.84992200
_cell_angle_alpha   90.00000000
_cell_angle_beta   90.00000000
_cell_angle_gamma   120.00000436
_symmetry_Int_Tables_number   1
_chemical_formula_structural   LaSiBO5
_chemical_formula_sum   'La3 Si3 B3 O15'
_cell_volume   281.04810974
_cell_formula_units_Z   3
loop_
 _symmetry_equiv_pos_site_id
 _symmetry_equiv_pos_as_xyz
  1  'x, y, z'
loop_
 _atom_site_type_symbol
 _atom_site_label
 _atom_site_symmetry_multiplicity
 _atom_site_fract_x
 _atom_site_fract_y
 _atom_site_fract_z
 _atom_site_occupancy
  La  La0  1  0.39890200  0.39890200  0.00000000  1
  La  La1  1  0.00000000  0.60109800  0.66666700  1
  La  La2  1  0.60109800  0.00000000  0.33333300  1
  Si  Si3  1  0.41740100  0.41740100  0.50000000  1
  Si  Si4  1  0.00000000  0.58259900  0.16666700  1
  Si  Si5  1  0.58259900  0.00000000  0.83333300  1
  B  B6  1  0.89180400  0.89180400  0.00000000  1
  B  B7  1  0.00000000  0.10819600  0.66666700  1
  B  B8  1  0.10819600  0.00000000  0.33333300  1
  O  O9  1  0.39403000  0.86229800  0.66904300  1
  O  O10  1  0.13770200  0.53173200  0.00237700  1
  O  O11  1  0.46826800  0.60597000  0.33571000  1
  O  O12  1  0.03883700  0.00000000  0.83333300  1
  O  O13  1  0.00000000  0.03883700  0.16666700  1
  O  O14  1  0.96116300  0.96116300  0.50000000  1
  O  O15  1  0.84735200  0.65607700  0.02781200  1
  O  O16  1  0.34392300  0.19127500  0.36114500  1
  O  O17  1  0.80872500  0.15264800  0.69447900  1
  O  O18  1  0.19127500  0.34392300  0.63885500  1
  O  O19  1  0.15264800  0.80872500  0.30552100  1
  O  O20  1  0.65607700  0.84735200  0.97218800  1
  O  O21  1  0.86229800  0.39403000  0.33095700  1
  O  O22  1  0.60597000  0.46826800  0.66429000  1
  O  O23  1  0.53173200  0.13770200  0.99762300  1
