# generated using pymatgen
data_Co(HO)2
_symmetry_space_group_name_H-M   'P 1'
_cell_length_a   3.07528400
_cell_length_b   3.25900614
_cell_length_c   5.03609560
_cell_angle_alpha   80.63116453
_cell_angle_beta   82.85554659
_cell_angle_gamma   62.96200729
_symmetry_Int_Tables_number   1
_chemical_formula_structural   Co(HO)2
_chemical_formula_sum   'Co1 H2 O2'
_cell_volume   44.28450338
_cell_formula_units_Z   1
loop_
 _symmetry_equiv_pos_site_id
 _symmetry_equiv_pos_as_xyz
  1  'x, y, z'
loop_
 _atom_site_type_symbol
 _atom_site_label
 _atom_site_symmetry_multiplicity
 _atom_site_fract_x
 _atom_site_fract_y
 _atom_site_fract_z
 _atom_site_occupancy
  Co  Co0  1  0.03294000  0.96953400  0.96616700  1
  H  H1  1  0.43203700  0.44217900  0.57266800  1
  H  H2  1  0.48542600  0.95148500  0.35477400  1
  O  O3  1  0.39637700  0.36272700  0.76834700  1
  O  O4  1  0.58931700  0.73852700  0.21924100  1
