# generated using pymatgen
data_ReH3O5
_symmetry_space_group_name_H-M   'P 1'
_cell_length_a   5.57769700
_cell_length_b   5.60501833
_cell_length_c   7.76407115
_cell_angle_alpha   107.25916780
_cell_angle_beta   109.94944342
_cell_angle_gamma   89.86168289
_symmetry_Int_Tables_number   1
_chemical_formula_structural   ReH3O5
_chemical_formula_sum   'Re2 H6 O10'
_cell_volume   216.56588611
_cell_formula_units_Z   2
loop_
 _symmetry_equiv_pos_site_id
 _symmetry_equiv_pos_as_xyz
  1  'x, y, z'
loop_
 _atom_site_type_symbol
 _atom_site_label
 _atom_site_symmetry_multiplicity
 _atom_site_fract_x
 _atom_site_fract_y
 _atom_site_fract_z
 _atom_site_occupancy
  Re  Re0  1  0.88769200  0.62056800  0.74573600  1
  Re  Re1  1  0.13882700  0.40289500  0.24445100  1
  H  H2  1  0.30099200  0.97584500  0.80777500  1
  H  H3  1  0.26089000  0.14883500  0.65501800  1
  H  H4  1  0.45255200  0.26654400  0.87492400  1
  H  H5  1  0.82140400  0.81191700  0.30295500  1
  H  H6  1  0.59365700  0.95190500  0.37308800  1
  H  H7  1  0.51391100  0.75008000  0.16129700  1
  O  O8  1  0.39110400  0.10985500  0.76471100  1
  O  O9  1  0.64521400  0.89126600  0.25923800  1
  O  O10  1  0.93642200  0.31797000  0.62383700  1
  O  O11  1  0.68125200  0.74616600  0.57856500  1
  O  O12  1  0.32033500  0.45262100  0.10809100  1
  O  O13  1  0.86132100  0.20698300  0.09092200  1
  O  O14  1  0.05387000  0.69380700  0.36677200  1
  O  O15  1  0.31252400  0.25136900  0.40806900  1
  O  O16  1  0.74578300  0.60126800  0.91054900  1
  O  O17  1  0.18741600  0.81525900  0.86578300  1
