# generated using pymatgen
data_ReH3O5
_symmetry_space_group_name_H-M   'P 1'
_cell_length_a   6.04644000
_cell_length_b   6.10420484
_cell_length_c   7.43015210
_cell_angle_alpha   113.16015868
_cell_angle_beta   111.68889876
_cell_angle_gamma   89.40076892
_symmetry_Int_Tables_number   1
_chemical_formula_structural   ReH3O5
_chemical_formula_sum   'Re2 H6 O10'
_cell_volume   231.34714898
_cell_formula_units_Z   2
loop_
 _symmetry_equiv_pos_site_id
 _symmetry_equiv_pos_as_xyz
  1  'x, y, z'
loop_
 _atom_site_type_symbol
 _atom_site_label
 _atom_site_symmetry_multiplicity
 _atom_site_fract_x
 _atom_site_fract_y
 _atom_site_fract_z
 _atom_site_occupancy
  Re  Re0  1  0.12459900  0.86604500  0.74911800  1
  Re  Re1  1  0.88128200  0.13367400  0.25489200  1
  H  H2  1  0.73207600  0.40197800  0.85513400  1
  H  H3  1  0.47015100  0.37352700  0.66049200  1
  H  H4  1  0.35093400  0.71752500  0.34542400  1
  H  H5  1  0.48075500  0.52042100  0.22356900  1
  H  H6  1  0.69896400  0.22142100  0.56911300  1
  H  H7  1  0.32915900  0.69872100  0.05542400  1
  O  O8  1  0.63523500  0.33765700  0.70205500  1
  O  O9  1  0.35623700  0.62279800  0.20553200  1
  O  O10  1  0.25645800  0.89206300  0.58383300  1
  O  O11  1  0.84405600  0.68582600  0.59184400  1
  O  O12  1  0.69251900  0.27101900  0.10177400  1
  O  O13  1  0.91084800  0.85092600  0.08883000  1
  O  O14  1  0.74855800  0.09153600  0.42000900  1
  O  O15  1  0.16363300  0.31511700  0.41282400  1
  O  O16  1  0.32267600  0.73367500  0.91699800  1
  O  O17  1  0.08295700  0.14979500  0.89926200  1
