# generated using pymatgen
data_VHO3
_symmetry_space_group_name_H-M   'P 1'
_cell_length_a   3.63413400
_cell_length_b   6.17562233
_cell_length_c   12.14103132
_cell_angle_alpha   93.53318591
_cell_angle_beta   90.02793286
_cell_angle_gamma   106.41795830
_symmetry_Int_Tables_number   1
_chemical_formula_structural   VHO3
_chemical_formula_sum   'V4 H4 O12'
_cell_volume   260.82889462
_cell_formula_units_Z   4
loop_
 _symmetry_equiv_pos_site_id
 _symmetry_equiv_pos_as_xyz
  1  'x, y, z'
loop_
 _atom_site_type_symbol
 _atom_site_label
 _atom_site_symmetry_multiplicity
 _atom_site_fract_x
 _atom_site_fract_y
 _atom_site_fract_z
 _atom_site_occupancy
  V  V0  1  0.92152700  0.84906600  0.86323600  1
  V  V1  1  0.07872600  0.15105000  0.13651300  1
  V  V2  1  0.21910200  0.43202600  0.86337800  1
  V  V3  1  0.78137800  0.56750500  0.13659200  1
  H  H4  1  0.59232000  0.38295600  0.50193100  1
  H  H5  1  0.88782900  0.24420900  0.48868700  1
  H  H6  1  0.10897900  0.70674700  0.48478100  1
  H  H7  1  0.44703700  0.91571400  0.50712600  1
  O  O8  1  0.38588600  0.77541900  0.89343700  1
  O  O9  1  0.61424700  0.22427700  0.10625600  1
  O  O10  1  0.07412700  0.14673400  0.91270800  1
  O  O11  1  0.92623400  0.85339500  0.08789500  1
  O  O12  1  0.75596500  0.50848100  0.89994300  1
  O  O13  1  0.24451400  0.49150500  0.09977200  1
  O  O14  1  0.92215400  0.85079300  0.73153500  1
  O  O15  1  0.07875000  0.15164800  0.26845600  1
  O  O16  1  0.20102700  0.39506800  0.73167700  1
  O  O17  1  0.79972200  0.60222900  0.26829500  1
  O  O18  1  0.61492600  0.22975600  0.49236600  1
  O  O19  1  0.38288000  0.75006700  0.50066100  1
