# generated using pymatgen
data_CdI2
_symmetry_space_group_name_H-M   'P 1'
_cell_length_a   4.34614613
_cell_length_b   4.34614613
_cell_length_c   66.13781200
_cell_angle_alpha   90.00000000
_cell_angle_beta   90.00000000
_cell_angle_gamma   120.00000205
_symmetry_Int_Tables_number   1
_chemical_formula_structural   CdI2
_chemical_formula_sum   'Cd9 I18'
_cell_volume   1081.90492028
_cell_formula_units_Z   9
loop_
 _symmetry_equiv_pos_site_id
 _symmetry_equiv_pos_as_xyz
  1  'x, y, z'
loop_
 _atom_site_type_symbol
 _atom_site_label
 _atom_site_symmetry_multiplicity
 _atom_site_fract_x
 _atom_site_fract_y
 _atom_site_fract_z
 _atom_site_occupancy
  Cd  Cd0  1  0.00000000  0.00000000  0.58332000  1
  Cd  Cd1  1  0.00000000  0.00000000  0.80557600  1
  Cd  Cd2  1  0.33333300  0.66666700  0.47223800  1
  Cd  Cd3  1  0.00000000  0.00000000  0.02777800  1
  Cd  Cd4  1  0.33333300  0.66666700  0.13890600  1
  Cd  Cd5  1  0.33333300  0.66666700  0.36108100  1
  Cd  Cd6  1  0.00000000  0.00000000  0.69443500  1
  Cd  Cd7  1  0.00000000  0.00000000  0.91665800  1
  Cd  Cd8  1  0.00000000  0.00000000  0.24998500  1
  I  I9  1  0.00000000  0.00000000  0.33498600  1
  I  I10  1  0.66666700  0.33333300  0.72054500  1
  I  I11  1  0.33333300  0.66666700  0.55722100  1
  I  I12  1  0.33333300  0.66666700  0.77947400  1
  I  I13  1  0.33333300  0.66666700  0.22388700  1
  I  I14  1  0.66666700  0.33333300  0.27609100  1
  I  I15  1  0.33333300  0.66666700  0.66834500  1
  I  I16  1  0.66666700  0.33333300  0.05388400  1
  I  I17  1  0.66666700  0.33333300  0.60941800  1
  I  I18  1  0.66666700  0.33333300  0.94275300  1
  I  I19  1  0.00000000  0.00000000  0.11282000  1
  I  I20  1  0.33333300  0.66666700  0.00170000  1
  I  I21  1  0.00000000  0.00000000  0.44613300  1
  I  I22  1  0.66666700  0.33333300  0.16500100  1
  I  I23  1  0.66666700  0.33333300  0.38717000  1
  I  I24  1  0.66666700  0.33333300  0.83168600  1
  I  I25  1  0.66666700  0.33333300  0.49835200  1
  I  I26  1  0.33333300  0.66666700  0.89055600  1
