# generated using pymatgen
data_K2Cd2(SO4)3
_symmetry_space_group_name_H-M   'P 1'
_cell_length_a   10.48117900
_cell_length_b   10.48117900
_cell_length_c   10.48117900
_cell_angle_alpha   90.00000000
_cell_angle_beta   90.00000000
_cell_angle_gamma   90.00000000
_symmetry_Int_Tables_number   1
_chemical_formula_structural   K2Cd2(SO4)3
_chemical_formula_sum   'K8 Cd8 S12 O48'
_cell_volume   1151.41110583
_cell_formula_units_Z   4
loop_
 _symmetry_equiv_pos_site_id
 _symmetry_equiv_pos_as_xyz
  1  'x, y, z'
loop_
 _atom_site_type_symbol
 _atom_site_label
 _atom_site_symmetry_multiplicity
 _atom_site_fract_x
 _atom_site_fract_y
 _atom_site_fract_z
 _atom_site_occupancy
  K  K0  1  0.68836500  0.18836500  0.31163500  1
  K  K1  1  0.31163500  0.68836500  0.18836500  1
  K  K2  1  0.94585500  0.55414500  0.44585500  1
  K  K3  1  0.81163500  0.81163500  0.81163500  1
  K  K4  1  0.05414500  0.05414500  0.05414500  1
  K  K5  1  0.44585500  0.94585500  0.55414500  1
  K  K6  1  0.55414500  0.44585500  0.94585500  1
  K  K7  1  0.18836500  0.31163500  0.68836500  1
  Cd  Cd8  1  0.32672400  0.32672400  0.32672400  1
  Cd  Cd9  1  0.17327600  0.67327600  0.82672400  1
  Cd  Cd10  1  0.82672400  0.17327600  0.67327600  1
  Cd  Cd11  1  0.67327600  0.82672400  0.17327600  1
  Cd  Cd12  1  0.41762700  0.08237300  0.91762700  1
  Cd  Cd13  1  0.08237300  0.91762700  0.41762700  1
  Cd  Cd14  1  0.58237300  0.58237300  0.58237300  1
  Cd  Cd15  1  0.91762700  0.41762700  0.08237300  1
  S  S16  1  0.26949700  0.62493200  0.51041600  1
  S  S17  1  0.76949700  0.87506800  0.48958400  1
  S  S18  1  0.73050300  0.12493200  0.98958400  1
  S  S19  1  0.87506800  0.48958400  0.76949700  1
  S  S20  1  0.98958400  0.73050300  0.12493200  1
  S  S21  1  0.48958400  0.76949700  0.87506800  1
  S  S22  1  0.62493200  0.51041600  0.26949700  1
  S  S23  1  0.51041600  0.26949700  0.62493200  1
  S  S24  1  0.12493200  0.98958400  0.73050300  1
  S  S25  1  0.23050300  0.37506800  0.01041600  1
  S  S26  1  0.01041600  0.23050300  0.37506800  1
  S  S27  1  0.37506800  0.01041600  0.23050300  1
  O  O28  1  0.58332500  0.76344200  0.98108700  1
  O  O29  1  0.08332500  0.73655800  0.01891300  1
  O  O30  1  0.41667500  0.26344200  0.51891300  1
  O  O31  1  0.73655800  0.01891300  0.08332500  1
  O  O32  1  0.51891300  0.41667500  0.26344200  1
  O  O33  1  0.01891300  0.08332500  0.73655800  1
  O  O34  1  0.76344200  0.98108700  0.58332500  1
  O  O35  1  0.98108700  0.58332500  0.76344200  1
  O  O36  1  0.26344200  0.51891300  0.41667500  1
  O  O37  1  0.23655800  0.48108700  0.91667500  1
  O  O38  1  0.48108700  0.91667500  0.23655800  1
  O  O39  1  0.91667500  0.23655800  0.48108700  1
  O  O40  1  0.07458400  0.85977500  0.76171700  1
  O  O41  1  0.57458400  0.64022500  0.23828300  1
  O  O42  1  0.92541600  0.35977500  0.73828300  1
  O  O43  1  0.64022500  0.23828300  0.57458400  1
  O  O44  1  0.73828300  0.92541600  0.35977500  1
  O  O45  1  0.23828300  0.57458400  0.64022500  1
  O  O46  1  0.67445500  0.77803100  0.52894500  1
  O  O47  1  0.85977500  0.76171700  0.07458400  1
  O  O48  1  0.35977500  0.73828300  0.92541600  1
  O  O49  1  0.14022500  0.26171700  0.42541600  1
  O  O50  1  0.26171700  0.42541600  0.14022500  1
  O  O51  1  0.42541600  0.14022500  0.26171700  1
  O  O52  1  0.22196900  0.02894500  0.82554500  1
  O  O53  1  0.72196900  0.47105500  0.17445500  1
  O  O54  1  0.77803100  0.52894500  0.67445500  1
  O  O55  1  0.47105500  0.17445500  0.72196900  1
  O  O56  1  0.09985500  0.31666300  0.01029300  1
  O  O57  1  0.01029300  0.09985500  0.31666300  1
  O  O58  1  0.31666300  0.01029300  0.09985500  1
  O  O59  1  0.18333700  0.98970700  0.59985500  1
  O  O60  1  0.51029300  0.40014500  0.68333700  1
  O  O61  1  0.68333700  0.51029300  0.40014500  1
  O  O62  1  0.48970700  0.90014500  0.81666300  1
  O  O63  1  0.98970700  0.59985500  0.18333700  1
  O  O64  1  0.81666300  0.48970700  0.90014500  1
  O  O65  1  0.59985500  0.18333700  0.98970700  1
  O  O66  1  0.90014500  0.81666300  0.48970700  1
  O  O67  1  0.40014500  0.68333700  0.51029300  1
  O  O68  1  0.27803100  0.97105500  0.32554500  1
  O  O69  1  0.32554500  0.27803100  0.97105500  1
  O  O70  1  0.97105500  0.32554500  0.27803100  1
  O  O71  1  0.52894500  0.67445500  0.77803100  1
  O  O72  1  0.82554500  0.22196900  0.02894500  1
  O  O73  1  0.02894500  0.82554500  0.22196900  1
  O  O74  1  0.17445500  0.72196900  0.47105500  1
  O  O75  1  0.76171700  0.07458400  0.85977500  1
