# generated using pymatgen
data_Ba3MoN4
_symmetry_space_group_name_H-M   'P 1'
_cell_length_a   18.66712211
_cell_length_b   18.66712211
_cell_length_c   10.54457600
_cell_angle_alpha   90.00000000
_cell_angle_beta   90.00000000
_cell_angle_gamma   120.00000041
_symmetry_Int_Tables_number   1
_chemical_formula_structural   Ba3MoN4
_chemical_formula_sum   'Ba54 Mo18 N72'
_cell_volume   3182.10487032
_cell_formula_units_Z   18
loop_
 _symmetry_equiv_pos_site_id
 _symmetry_equiv_pos_as_xyz
  1  'x, y, z'
loop_
 _atom_site_type_symbol
 _atom_site_label
 _atom_site_symmetry_multiplicity
 _atom_site_fract_x
 _atom_site_fract_y
 _atom_site_fract_z
 _atom_site_occupancy
  Ba  Ba0  1  0.15240700  0.22913000  0.53243400  1
  Ba  Ba1  1  0.34738200  0.32621000  0.72378400  1
  Ba  Ba2  1  0.89875100  0.47218500  0.95871300  1
  Ba  Ba3  1  0.66666700  0.33333300  0.11686400  1
  Ba  Ba4  1  0.12159000  0.52052200  0.80418000  1
  Ba  Ba5  1  0.22131500  0.08299700  0.37916700  1
  Ba  Ba6  1  0.87841000  0.39893200  0.30418000  1
  Ba  Ba7  1  0.45091300  0.26404300  0.45518500  1
  Ba  Ba8  1  0.33117600  0.02160900  0.10246700  1
  Ba  Ba9  1  0.91700300  0.13831800  0.37916700  1
  Ba  Ba10  1  0.77868500  0.86168200  0.87916700  1
  Ba  Ba11  1  0.00000000  0.00000000  0.19276800  1
  Ba  Ba12  1  0.39893200  0.87841000  0.80418000  1
  Ba  Ba13  1  0.33333300  0.66666700  0.14124600  1
  Ba  Ba14  1  0.13831800  0.91700300  0.87916700  1
  Ba  Ba15  1  0.67379000  0.02117200  0.72378400  1
  Ba  Ba16  1  0.57343300  0.10124900  0.95871300  1
  Ba  Ba17  1  0.02160900  0.33117600  0.60246700  1
  Ba  Ba18  1  0.26404300  0.45091300  0.95518500  1
  Ba  Ba19  1  0.52052200  0.12159000  0.30418000  1
  Ba  Ba20  1  0.33333300  0.66666700  0.61686400  1
  Ba  Ba21  1  0.07672300  0.84759300  0.53243400  1
  Ba  Ba22  1  0.54908700  0.81313000  0.95518500  1
  Ba  Ba23  1  0.43617700  0.18416000  0.79803700  1
  Ba  Ba24  1  0.22913000  0.15240700  0.03243400  1
  Ba  Ba25  1  0.10124900  0.57343300  0.45871300  1
  Ba  Ba26  1  0.52781500  0.42656700  0.95871300  1
  Ba  Ba27  1  0.86168200  0.77868500  0.37916700  1
  Ba  Ba28  1  0.84759300  0.07672300  0.03243400  1
  Ba  Ba29  1  0.97839100  0.30956700  0.10246700  1
  Ba  Ba30  1  0.65261800  0.97882800  0.22378400  1
  Ba  Ba31  1  0.00000000  0.00000000  0.69276800  1
  Ba  Ba32  1  0.60106800  0.47947800  0.30418000  1
  Ba  Ba33  1  0.47218500  0.89875100  0.45871300  1
  Ba  Ba34  1  0.47947800  0.60106800  0.80418000  1
  Ba  Ba35  1  0.32621000  0.34738200  0.22378400  1
  Ba  Ba36  1  0.77087000  0.92327700  0.53243400  1
  Ba  Ba37  1  0.18687000  0.73595700  0.95518500  1
  Ba  Ba38  1  0.02117200  0.67379000  0.22378400  1
  Ba  Ba39  1  0.30956700  0.97839100  0.60246700  1
  Ba  Ba40  1  0.92327700  0.77087000  0.03243400  1
  Ba  Ba41  1  0.81584000  0.25201700  0.79803700  1
  Ba  Ba42  1  0.69043300  0.66882400  0.10246700  1
  Ba  Ba43  1  0.08299700  0.22131500  0.87916700  1
  Ba  Ba44  1  0.81313000  0.54908700  0.45518500  1
  Ba  Ba45  1  0.97882800  0.65261800  0.72378400  1
  Ba  Ba46  1  0.66666700  0.33333300  0.64124600  1
  Ba  Ba47  1  0.74798300  0.56382300  0.79803700  1
  Ba  Ba48  1  0.56382300  0.74798300  0.29803700  1
  Ba  Ba49  1  0.18416000  0.43617700  0.29803700  1
  Ba  Ba50  1  0.42656700  0.52781500  0.45871300  1
  Ba  Ba51  1  0.73595700  0.18687000  0.45518500  1
  Ba  Ba52  1  0.66882400  0.69043300  0.60246700  1
  Ba  Ba53  1  0.25201700  0.81584000  0.29803700  1
  Mo  Mo54  1  0.76464700  0.20442800  0.12019900  1
  Mo  Mo55  1  0.77320200  0.87832600  0.21309900  1
  Mo  Mo56  1  0.56021900  0.79557200  0.62019900  1
  Mo  Mo57  1  0.10512400  0.22679800  0.21309900  1
  Mo  Mo58  1  0.87832600  0.77320200  0.71309900  1
  Mo  Mo59  1  0.22679800  0.10512400  0.71309900  1
  Mo  Mo60  1  0.12167400  0.89487600  0.21309900  1
  Mo  Mo61  1  0.44195300  0.88999000  0.12422400  1
  Mo  Mo62  1  0.55196300  0.11001000  0.62422400  1
  Mo  Mo63  1  0.20442800  0.76464700  0.62019900  1
  Mo  Mo64  1  0.55804700  0.44803700  0.62422400  1
  Mo  Mo65  1  0.88999000  0.44195300  0.62422400  1
  Mo  Mo66  1  0.23535300  0.43978100  0.62019900  1
  Mo  Mo67  1  0.11001000  0.55196300  0.12422400  1
  Mo  Mo68  1  0.79557200  0.56021900  0.12019900  1
  Mo  Mo69  1  0.89487600  0.12167400  0.71309900  1
  Mo  Mo70  1  0.43978100  0.23535300  0.12019900  1
  Mo  Mo71  1  0.44803700  0.55804700  0.12422400  1
  N  N72  1  0.80163200  0.47439100  0.20618600  1
  N  N73  1  0.31176700  0.18068400  0.60308000  1
  N  N74  1  0.30885800  0.82792700  0.54360300  1
  N  N75  1  0.73075900  0.12114000  0.99624600  1
  N  N76  1  0.53234100  0.18865100  0.54409900  1
  N  N77  1  0.14780300  0.01158300  0.62193700  1
  N  N78  1  0.83682700  0.19469400  0.23555900  1
  N  N79  1  0.16099200  0.17782300  0.28896400  1
  N  N80  1  0.64213200  0.80530600  0.73555900  1
  N  N81  1  0.80530600  0.64213200  0.23555900  1
  N  N82  1  0.46765900  0.65630900  0.04409900  1
  N  N83  1  0.67275900  0.19836800  0.20618600  1
  N  N84  1  0.17207300  0.48093100  0.54360300  1
  N  N85  1  0.83900800  0.01683100  0.78896400  1
  N  N86  1  0.69114200  0.51906900  0.04360300  1
  N  N87  1  0.52047000  0.94304100  0.99441100  1
  N  N88  1  0.79756300  0.72689400  0.84189000  1
  N  N89  1  0.42257100  0.47953000  0.99441100  1
  N  N90  1  0.47439100  0.80163200  0.70618600  1
  N  N91  1  0.94304100  0.52047000  0.49441100  1
  N  N92  1  0.27310600  0.07066800  0.84189000  1
  N  N93  1  0.60962000  0.87886000  0.49624600  1
  N  N94  1  0.98316900  0.82217700  0.78896400  1
  N  N95  1  0.07066800  0.27310600  0.34189000  1
  N  N96  1  0.05695900  0.57742900  0.99441100  1
  N  N97  1  0.20243700  0.92933200  0.34189000  1
  N  N98  1  0.42308400  0.96281000  0.22697600  1
  N  N99  1  0.13622000  0.98841700  0.12193700  1
  N  N100  1  0.86378000  0.85219700  0.62193700  1
  N  N101  1  0.48080600  0.83361900  0.22605200  1
  N  N102  1  0.48093100  0.17207300  0.04360300  1
  N  N103  1  0.81931600  0.13108300  0.60308000  1
  N  N104  1  0.12114000  0.73075900  0.49624600  1
  N  N105  1  0.13108300  0.81931600  0.10308000  1
  N  N106  1  0.16317300  0.35786800  0.73555900  1
  N  N107  1  0.51919400  0.35281200  0.72605200  1
  N  N108  1  0.19836800  0.67275900  0.70618600  1
  N  N109  1  0.87886000  0.60962000  0.99624600  1
  N  N110  1  0.96281000  0.42308400  0.72697600  1
  N  N111  1  0.03719000  0.46027400  0.22697600  1
  N  N112  1  0.53972600  0.57691600  0.22697600  1
  N  N113  1  0.35281200  0.51919400  0.22605200  1
  N  N114  1  0.17782300  0.16099200  0.78896400  1
  N  N115  1  0.18068400  0.31176700  0.10308000  1
  N  N116  1  0.68823300  0.86891700  0.10308000  1
  N  N117  1  0.18865100  0.53234100  0.04409900  1
  N  N118  1  0.34369100  0.81134900  0.04409900  1
  N  N119  1  0.01683100  0.83900800  0.28896400  1
  N  N120  1  0.51906900  0.69114200  0.54360300  1
  N  N121  1  0.72689400  0.79756300  0.34189000  1
  N  N122  1  0.32724100  0.52560900  0.70618600  1
  N  N123  1  0.01158300  0.14780300  0.12193700  1
  N  N124  1  0.82792700  0.30885800  0.04360300  1
  N  N125  1  0.19469400  0.83682700  0.73555900  1
  N  N126  1  0.57742900  0.05695900  0.49441100  1
  N  N127  1  0.65630900  0.46765900  0.54409900  1
  N  N128  1  0.92933200  0.20243700  0.84189000  1
  N  N129  1  0.82217700  0.98316900  0.28896400  1
  N  N130  1  0.16638100  0.64718800  0.22605200  1
  N  N131  1  0.39038000  0.26924100  0.99624600  1
  N  N132  1  0.64718800  0.16638100  0.72605200  1
  N  N133  1  0.83361900  0.48080600  0.72605200  1
  N  N134  1  0.35786800  0.16317300  0.23555900  1
  N  N135  1  0.85219700  0.86378000  0.12193700  1
  N  N136  1  0.46027400  0.03719000  0.72697600  1
  N  N137  1  0.86891700  0.68823300  0.60308000  1
  N  N138  1  0.47953000  0.42257100  0.49441100  1
  N  N139  1  0.57691600  0.53972600  0.72697600  1
  N  N140  1  0.26924100  0.39038000  0.49624600  1
  N  N141  1  0.52560900  0.32724100  0.20618600  1
  N  N142  1  0.81134900  0.34369100  0.54409900  1
  N  N143  1  0.98841700  0.13622000  0.62193700  1
