# generated using pymatgen
data_In3Ir
_symmetry_space_group_name_H-M   'P 1'
_cell_length_a   7.11689500
_cell_length_b   7.11689500
_cell_length_c   7.32173700
_cell_angle_alpha   90.00000000
_cell_angle_beta   90.00000000
_cell_angle_gamma   90.00000000
_symmetry_Int_Tables_number   1
_chemical_formula_structural   In3Ir
_chemical_formula_sum   'In12 Ir4'
_cell_volume   370.84740270
_cell_formula_units_Z   4
loop_
 _symmetry_equiv_pos_site_id
 _symmetry_equiv_pos_as_xyz
  1  'x, y, z'
loop_
 _atom_site_type_symbol
 _atom_site_label
 _atom_site_symmetry_multiplicity
 _atom_site_fract_x
 _atom_site_fract_y
 _atom_site_fract_z
 _atom_site_occupancy
  In  In0  1  0.34826200  0.34826200  0.25568300  1
  In  In1  1  0.15173800  0.84826200  0.75568300  1
  In  In2  1  0.15173800  0.84826200  0.24431700  1
  In  In3  1  0.00000000  0.50000000  0.00000000  1
  In  In4  1  0.84826200  0.15173800  0.24431700  1
  In  In5  1  0.84826200  0.15173800  0.75568300  1
  In  In6  1  0.50000000  0.00000000  0.00000000  1
  In  In7  1  0.65173800  0.65173800  0.25568300  1
  In  In8  1  0.65173800  0.65173800  0.74431700  1
  In  In9  1  0.00000000  0.50000000  0.50000000  1
  In  In10  1  0.34826200  0.34826200  0.74431700  1
  In  In11  1  0.50000000  0.00000000  0.50000000  1
  Ir  Ir12  1  0.15507100  0.15507100  0.00000000  1
  Ir  Ir13  1  0.65507100  0.34492900  0.50000000  1
  Ir  Ir14  1  0.34492900  0.65507100  0.50000000  1
  Ir  Ir15  1  0.84492900  0.84492900  0.00000000  1
