# generated using pymatgen
data_AsSeBr
_symmetry_space_group_name_H-M   'P 1'
_cell_length_a   4.82834148
_cell_length_b   4.82834148
_cell_length_c   4.82834148
_cell_angle_alpha   60.00000000
_cell_angle_beta   60.00000000
_cell_angle_gamma   60.00000000
_symmetry_Int_Tables_number   1
_chemical_formula_structural   AsSeBr
_chemical_formula_sum   'As1 Se1 Br1'
_cell_volume   79.59374402
_cell_formula_units_Z   1
loop_
 _symmetry_equiv_pos_site_id
 _symmetry_equiv_pos_as_xyz
  1  'x, y, z'
loop_
 _atom_site_type_symbol
 _atom_site_label
 _atom_site_symmetry_multiplicity
 _atom_site_fract_x
 _atom_site_fract_y
 _atom_site_fract_z
 _atom_site_occupancy
  As  As0  1  0.00000000  0.00000000  0.00000000  1
  Se  Se1  1  0.25000000  0.25000000  0.25000000  1
  Br  Br2  1  0.50000000  0.50000000  0.50000000  1
