# generated using pymatgen
data_Ti6Si2B
_symmetry_space_group_name_H-M   'P 1'
_cell_length_a   6.78583209
_cell_length_b   6.78583209
_cell_length_c   3.31729100
_cell_angle_alpha   90.00000000
_cell_angle_beta   90.00000000
_cell_angle_gamma   120.00000086
_symmetry_Int_Tables_number   1
_chemical_formula_structural   Ti6Si2B
_chemical_formula_sum   'Ti6 Si2 B1'
_cell_volume   132.28798962
_cell_formula_units_Z   1
loop_
 _symmetry_equiv_pos_site_id
 _symmetry_equiv_pos_as_xyz
  1  'x, y, z'
loop_
 _atom_site_type_symbol
 _atom_site_label
 _atom_site_symmetry_multiplicity
 _atom_site_fract_x
 _atom_site_fract_y
 _atom_site_fract_z
 _atom_site_occupancy
  Ti  Ti0  1  0.23844400  0.00000000  0.50000000  1
  Ti  Ti1  1  0.76155600  0.76155600  0.50000000  1
  Ti  Ti2  1  0.00000000  0.23844400  0.50000000  1
  Ti  Ti3  1  0.60041000  0.00000000  0.00000000  1
  Ti  Ti4  1  0.39959000  0.39959000  0.00000000  1
  Ti  Ti5  1  0.00000000  0.60041000  0.00000000  1
  Si  Si6  1  0.33333300  0.66666700  0.50000000  1
  Si  Si7  1  0.66666700  0.33333300  0.50000000  1
  B  B8  1  0.00000000  0.00000000  0.00000000  1
