# generated using pymatgen
data_Ba3Ti3(BO6)2
_symmetry_space_group_name_H-M   'P 1'
_cell_length_a   8.88921474
_cell_length_b   8.88921474
_cell_length_c   3.85725100
_cell_angle_alpha   90.00000000
_cell_angle_beta   90.00000000
_cell_angle_gamma   120.00000552
_symmetry_Int_Tables_number   1
_chemical_formula_structural   Ba3Ti3(BO6)2
_chemical_formula_sum   'Ba3 Ti3 B2 O12'
_cell_volume   263.95828834
_cell_formula_units_Z   1
loop_
 _symmetry_equiv_pos_site_id
 _symmetry_equiv_pos_as_xyz
  1  'x, y, z'
loop_
 _atom_site_type_symbol
 _atom_site_label
 _atom_site_symmetry_multiplicity
 _atom_site_fract_x
 _atom_site_fract_y
 _atom_site_fract_z
 _atom_site_occupancy
  Ba  Ba0  1  0.40428500  0.40428500  0.50000000  1
  Ba  Ba1  1  0.59571500  0.00000000  0.50000000  1
  Ba  Ba2  1  0.00000000  0.59571500  0.50000000  1
  Ti  Ti3  1  0.76541600  0.76541600  0.00000000  1
  Ti  Ti4  1  0.23458400  0.00000000  0.00000000  1
  Ti  Ti5  1  0.00000000  0.23458400  0.00000000  1
  B  B6  1  0.66666700  0.33333300  0.00000000  1
  B  B7  1  0.33333300  0.66666700  0.00000000  1
  O  O8  1  0.18509400  0.50565700  0.00000000  1
  O  O9  1  0.50565700  0.18509400  0.00000000  1
  O  O10  1  0.81490600  0.32056300  0.00000000  1
  O  O11  1  0.67943700  0.49434300  0.00000000  1
  O  O12  1  0.49434300  0.67943700  0.00000000  1
  O  O13  1  0.32056300  0.81490600  0.00000000  1
  O  O14  1  0.00000000  0.26355000  0.50000000  1
  O  O15  1  0.26355000  0.00000000  0.50000000  1
  O  O16  1  0.73645000  0.73645000  0.50000000  1
  O  O17  1  0.00000000  0.81540600  0.00000000  1
  O  O18  1  0.81540600  0.00000000  0.00000000  1
  O  O19  1  0.18459400  0.18459400  0.00000000  1
