# generated using pymatgen
data_Na3In(PO4)2
_symmetry_space_group_name_H-M   'P 1'
_cell_length_a   18.46323200
_cell_length_b   5.21618800
_cell_length_c   8.73475163
_cell_angle_alpha   55.57811486
_cell_angle_beta   90.00000000
_cell_angle_gamma   90.00000000
_symmetry_Int_Tables_number   1
_chemical_formula_structural   Na3In(PO4)2
_chemical_formula_sum   'Na12 In4 P8 O32'
_cell_volume   693.92348161
_cell_formula_units_Z   4
loop_
 _symmetry_equiv_pos_site_id
 _symmetry_equiv_pos_as_xyz
  1  'x, y, z'
loop_
 _atom_site_type_symbol
 _atom_site_label
 _atom_site_symmetry_multiplicity
 _atom_site_fract_x
 _atom_site_fract_y
 _atom_site_fract_z
 _atom_site_occupancy
  Na  Na0  1  0.69399800  0.39666900  0.80450100  1
  Na  Na1  1  0.87540100  0.69935800  0.51400800  1
  Na  Na2  1  0.37540100  0.30064200  0.98599200  1
  Na  Na3  1  0.12459900  0.30064200  0.48599200  1
  Na  Na4  1  0.62459900  0.69935800  0.01400800  1
  Na  Na5  1  0.80600200  0.39666900  0.30450100  1
  Na  Na6  1  0.30600200  0.60333100  0.19549900  1
  Na  Na7  1  0.19399800  0.60333100  0.69549900  1
  Na  Na8  1  0.54990900  0.04934700  0.20886300  1
  Na  Na9  1  0.95009100  0.04934700  0.70886300  1
  Na  Na10  1  0.45009100  0.95065300  0.79113700  1
  Na  Na11  1  0.04990900  0.95065300  0.29113700  1
  In  In12  1  0.62785100  0.20428700  0.51238900  1
  In  In13  1  0.12785100  0.79571300  0.98761100  1
  In  In14  1  0.37214900  0.79571300  0.48761100  1
  In  In15  1  0.87214900  0.20428700  0.01238900  1
  P  P16  1  0.53669800  0.51373600  0.71651700  1
  P  P17  1  0.71363100  0.91414700  0.28172100  1
  P  P18  1  0.21363100  0.08585300  0.21827900  1
  P  P19  1  0.28636900  0.08585300  0.71827900  1
  P  P20  1  0.78636900  0.91414700  0.78172100  1
  P  P21  1  0.03669800  0.48626400  0.78348300  1
  P  P22  1  0.96330200  0.51373600  0.21651700  1
  P  P23  1  0.46330200  0.48626400  0.28348300  1
  O  O24  1  0.43798400  0.52717000  0.10491500  1
  O  O25  1  0.93798400  0.47283000  0.39508500  1
  O  O26  1  0.56201600  0.47283000  0.89508500  1
  O  O27  1  0.06201600  0.52717000  0.60491500  1
  O  O28  1  0.43239300  0.18221500  0.45649400  1
  O  O29  1  0.93239300  0.81778500  0.04350600  1
  O  O30  1  0.56760700  0.81778500  0.54350600  1
  O  O31  1  0.06760700  0.18221500  0.95649400  1
  O  O32  1  0.54859800  0.48820900  0.28728900  1
  O  O33  1  0.04859800  0.51179100  0.21271100  1
  O  O34  1  0.45140200  0.51179100  0.71271100  1
  O  O35  1  0.95140200  0.48820900  0.78728900  1
  O  O36  1  0.43660900  0.77221200  0.28499900  1
  O  O37  1  0.93660900  0.22778800  0.21500100  1
  O  O38  1  0.56339100  0.22778800  0.71500100  1
  O  O39  1  0.06339100  0.77221200  0.78499900  1
  O  O40  1  0.80229800  0.58267200  0.95910100  1
  O  O41  1  0.30229800  0.41732800  0.54089900  1
  O  O42  1  0.19770200  0.41732800  0.04089900  1
  O  O43  1  0.69770200  0.58267200  0.45910100  1
  O  O44  1  0.80551300  0.17042000  0.81683900  1
  O  O45  1  0.30551300  0.82958000  0.68316100  1
  O  O46  1  0.19448700  0.82958000  0.18316100  1
  O  O47  1  0.69448700  0.17042000  0.31683900  1
  O  O48  1  0.79803900  0.91841900  0.25194800  1
  O  O49  1  0.29803900  0.08158100  0.24805200  1
  O  O50  1  0.20196100  0.08158100  0.74805200  1
  O  O51  1  0.70196100  0.91841900  0.75194800  1
  O  O52  1  0.67133900  0.97870400  0.11368500  1
  O  O53  1  0.17133900  0.02129600  0.38631500  1
  O  O54  1  0.32866100  0.02129600  0.88631500  1
  O  O55  1  0.82866100  0.97870400  0.61368500  1
