# generated using pymatgen
data_HgS
_symmetry_space_group_name_H-M   'P 1'
_cell_length_a   4.43749217
_cell_length_b   4.43749217
_cell_length_c   9.75770000
_cell_angle_alpha   90.00000000
_cell_angle_beta   90.00000000
_cell_angle_gamma   120.00000257
_symmetry_Int_Tables_number   1
_chemical_formula_structural   HgS
_chemical_formula_sum   'Hg3 S3'
_cell_volume   166.39998470
_cell_formula_units_Z   3
loop_
 _symmetry_equiv_pos_site_id
 _symmetry_equiv_pos_as_xyz
  1  'x, y, z'
loop_
 _atom_site_type_symbol
 _atom_site_label
 _atom_site_symmetry_multiplicity
 _atom_site_fract_x
 _atom_site_fract_y
 _atom_site_fract_z
 _atom_site_occupancy
  Hg  Hg0  1  0.76071000  0.76071000  0.00000000  1
  Hg  Hg1  1  0.00000000  0.23929000  0.66666700  1
  Hg  Hg2  1  0.23929000  0.00000000  0.33333300  1
  S  S3  1  0.45489500  0.45489500  0.50000000  1
  S  S4  1  0.00000000  0.54510500  0.16666700  1
  S  S5  1  0.54510500  0.00000000  0.83333300  1
