# generated using pymatgen
data_Na2Y2B2O7
_symmetry_space_group_name_H-M   'P 1'
_cell_length_a   6.29598900
_cell_length_b   10.35698100
_cell_length_c   10.67899658
_cell_angle_alpha   62.25946243
_cell_angle_beta   90.00000000
_cell_angle_gamma   90.00000000
_symmetry_Int_Tables_number   1
_chemical_formula_structural   Na2Y2B2O7
_chemical_formula_sum   'Na8 Y8 B8 O28'
_cell_volume   616.31469045
_cell_formula_units_Z   4
loop_
 _symmetry_equiv_pos_site_id
 _symmetry_equiv_pos_as_xyz
  1  'x, y, z'
loop_
 _atom_site_type_symbol
 _atom_site_label
 _atom_site_symmetry_multiplicity
 _atom_site_fract_x
 _atom_site_fract_y
 _atom_site_fract_z
 _atom_site_occupancy
  Na  Na0  1  0.76976600  0.45113800  0.61138000  1
  Na  Na1  1  0.26976600  0.04886200  0.38862000  1
  Na  Na2  1  0.23023400  0.54886200  0.38862000  1
  Na  Na3  1  0.73023400  0.95113800  0.61138000  1
  Na  Na4  1  0.44287000  0.23978500  0.52354300  1
  Na  Na5  1  0.94287000  0.26021500  0.47645700  1
  Na  Na6  1  0.55713000  0.76021500  0.47645700  1
  Na  Na7  1  0.05713000  0.73978500  0.52354300  1
  Y  Y8  1  0.95908200  0.31717800  0.98458700  1
  Y  Y9  1  0.45908200  0.18282200  0.01541300  1
  Y  Y10  1  0.04091800  0.68282200  0.01541300  1
  Y  Y11  1  0.54091800  0.81717800  0.98458700  1
  Y  Y12  1  0.58203100  0.41423400  0.18278200  1
  Y  Y13  1  0.08203100  0.08576600  0.81721800  1
  Y  Y14  1  0.41796900  0.58576600  0.81721800  1
  Y  Y15  1  0.91796900  0.91423400  0.18278200  1
  B  B16  1  0.15320600  0.35165700  0.20760700  1
  B  B17  1  0.65320600  0.14834300  0.79239300  1
  B  B18  1  0.84679400  0.64834300  0.79239300  1
  B  B19  1  0.34679400  0.85165700  0.20760700  1
  B  B20  1  0.75302200  0.58115700  0.31493600  1
  B  B21  1  0.25302200  0.91884300  0.68506400  1
  B  B22  1  0.24697800  0.41884300  0.68506400  1
  B  B23  1  0.74697800  0.08115700  0.31493600  1
  O  O24  1  0.64811900  0.16492200  0.36686800  1
  O  O25  1  0.14811900  0.33507800  0.63313200  1
  O  O26  1  0.35188100  0.83507800  0.63313200  1
  O  O27  1  0.85188100  0.66492200  0.36686800  1
  O  O28  1  0.75621300  0.22935500  0.84946800  1
  O  O29  1  0.25621300  0.27064500  0.15053200  1
  O  O30  1  0.24378700  0.77064500  0.15053200  1
  O  O31  1  0.74378700  0.72935500  0.84946800  1
  O  O32  1  0.87603400  0.90225000  0.97489800  1
  O  O33  1  0.37603400  0.59775000  0.02510200  1
  O  O34  1  0.12396600  0.09775000  0.02510200  1
  O  O35  1  0.62396600  0.40225000  0.97489800  1
  O  O36  1  0.25290800  0.86690600  0.31517600  1
  O  O37  1  0.75290800  0.63309400  0.68482400  1
  O  O38  1  0.74709200  0.13309400  0.68482400  1
  O  O39  1  0.24709200  0.36690600  0.31517600  1
  O  O40  1  0.73695000  0.63250700  0.16671500  1
  O  O41  1  0.23695000  0.86749300  0.83328500  1
  O  O42  1  0.26305000  0.36749300  0.83328500  1
  O  O43  1  0.76305000  0.13250700  0.16671500  1
  O  O44  1  0.54157600  0.91363100  0.14876800  1
  O  O45  1  0.04157600  0.58636900  0.85123200  1
  O  O46  1  0.45842400  0.08636900  0.85123200  1
  O  O47  1  0.95842400  0.41363100  0.14876800  1
  O  O48  1  0.83148100  0.94466900  0.39772200  1
  O  O49  1  0.33148100  0.55533100  0.60227800  1
  O  O50  1  0.16851900  0.05533100  0.60227800  1
  O  O51  1  0.66851900  0.44466900  0.39772200  1
