# generated using pymatgen
data_Cs6Bi4O9
_symmetry_space_group_name_H-M   'P 1'
_cell_length_a   8.35205500
_cell_length_b   10.19762290
_cell_length_c   12.48819025
_cell_angle_alpha   104.04299906
_cell_angle_beta   93.68973485
_cell_angle_gamma   92.24210102
_symmetry_Int_Tables_number   1
_chemical_formula_structural   Cs6Bi4O9
_chemical_formula_sum   'Cs12 Bi8 O18'
_cell_volume   1028.05906115
_cell_formula_units_Z   2
loop_
 _symmetry_equiv_pos_site_id
 _symmetry_equiv_pos_as_xyz
  1  'x, y, z'
loop_
 _atom_site_type_symbol
 _atom_site_label
 _atom_site_symmetry_multiplicity
 _atom_site_fract_x
 _atom_site_fract_y
 _atom_site_fract_z
 _atom_site_occupancy
  Cs  Cs0  1  0.85263800  0.85121400  0.55323000  1
  Cs  Cs1  1  0.14736200  0.14878600  0.44677000  1
  Cs  Cs2  1  0.37767300  0.63626200  0.94284200  1
  Cs  Cs3  1  0.44087500  0.23733300  0.74090700  1
  Cs  Cs4  1  0.11771100  0.96093000  0.86320500  1
  Cs  Cs5  1  0.61914200  0.55051500  0.63868000  1
  Cs  Cs6  1  0.55912500  0.76266700  0.25909300  1
  Cs  Cs7  1  0.88228900  0.03907000  0.13679500  1
  Cs  Cs8  1  0.93474300  0.24935500  0.74977400  1
  Cs  Cs9  1  0.62232700  0.36373800  0.05715800  1
  Cs  Cs10  1  0.06525700  0.75064500  0.25022600  1
  Cs  Cs11  1  0.38085800  0.44948500  0.36132000  1
  Bi  Bi12  1  0.11396100  0.54398400  0.62956100  1
  Bi  Bi13  1  0.38560600  0.06818800  0.14777900  1
  Bi  Bi14  1  0.66425800  0.16445500  0.41260000  1
  Bi  Bi15  1  0.14017100  0.35628700  0.07185100  1
  Bi  Bi16  1  0.88603900  0.45601600  0.37043900  1
  Bi  Bi17  1  0.85982900  0.64371300  0.92814900  1
  Bi  Bi18  1  0.33574200  0.83554500  0.58740000  1
  Bi  Bi19  1  0.61439400  0.93181200  0.85222100  1
  O  O20  1  0.74394500  0.72272500  0.06864800  1
  O  O21  1  0.23145900  0.89931300  0.10331300  1
  O  O22  1  0.18696200  0.99258800  0.63078800  1
  O  O23  1  0.89660600  0.37865300  0.51441900  1
  O  O24  1  0.10339400  0.62134700  0.48558100  1
  O  O25  1  0.29123900  0.52500500  0.14399000  1
  O  O26  1  0.25605500  0.27727500  0.93135200  1
  O  O27  1  0.29166300  0.72724200  0.70870400  1
  O  O28  1  0.70833700  0.27275800  0.29129600  1
  O  O29  1  0.79079700  0.78079600  0.82312200  1
  O  O30  1  0.43963000  0.06379400  0.31638900  1
  O  O31  1  0.81303800  0.00741200  0.36921200  1
  O  O32  1  0.70876100  0.47499500  0.85601000  1
  O  O33  1  0.20920300  0.21920400  0.17687800  1
  O  O34  1  0.76854100  0.10068700  0.89668700  1
  O  O35  1  0.28826800  0.40545400  0.59998800  1
  O  O36  1  0.56037000  0.93620600  0.68361100  1
  O  O37  1  0.71173200  0.59454600  0.40001200  1
