# generated using pymatgen
data_Ag2WO4
_symmetry_space_group_name_H-M   'P 1'
_cell_length_a   5.95045400
_cell_length_b   11.16405300
_cell_length_c   12.30450500
_cell_angle_alpha   90.00000000
_cell_angle_beta   90.00000000
_cell_angle_gamma   90.00000000
_symmetry_Int_Tables_number   1
_chemical_formula_structural   Ag2WO4
_chemical_formula_sum   'Ag16 W8 O32'
_cell_volume   817.40283359
_cell_formula_units_Z   8
loop_
 _symmetry_equiv_pos_site_id
 _symmetry_equiv_pos_as_xyz
  1  'x, y, z'
loop_
 _atom_site_type_symbol
 _atom_site_label
 _atom_site_symmetry_multiplicity
 _atom_site_fract_x
 _atom_site_fract_y
 _atom_site_fract_z
 _atom_site_occupancy
  Ag  Ag0  1  0.51322500  0.25424800  0.67301900  1
  Ag  Ag1  1  0.48677500  0.74575200  0.67301900  1
  Ag  Ag2  1  0.01322500  0.24575200  0.17301900  1
  Ag  Ag3  1  0.98677500  0.75424800  0.17301900  1
  Ag  Ag4  1  0.47955100  0.73782800  0.31825300  1
  Ag  Ag5  1  0.52044900  0.26217200  0.31825300  1
  Ag  Ag6  1  0.97955100  0.76217200  0.81825300  1
  Ag  Ag7  1  0.02044900  0.23782800  0.81825300  1
  Ag  Ag8  1  0.50000000  0.50000000  0.48958400  1
  Ag  Ag9  1  0.00000000  0.00000000  0.98958400  1
  Ag  Ag10  1  0.50000000  0.50000000  0.15418600  1
  Ag  Ag11  1  0.00000000  0.00000000  0.65418600  1
  Ag  Ag12  1  0.50000000  0.50000000  0.81630400  1
  Ag  Ag13  1  0.00000000  0.00000000  0.31630400  1
  Ag  Ag14  1  0.00000000  0.50000000  0.00517000  1
  Ag  Ag15  1  0.50000000  0.00000000  0.50517000  1
  W  W16  1  0.96407000  0.75061800  0.49471200  1
  W  W17  1  0.03593000  0.24938200  0.49471200  1
  W  W18  1  0.46407000  0.74938200  0.99471200  1
  W  W19  1  0.53593000  0.25061800  0.99471200  1
  W  W20  1  0.00000000  0.50000000  0.35233800  1
  W  W21  1  0.50000000  0.00000000  0.85233800  1
  W  W22  1  0.00000000  0.50000000  0.64149000  1
  W  W23  1  0.50000000  0.00000000  0.14149000  1
  O  O24  1  0.30148500  0.86656000  0.10727700  1
  O  O25  1  0.69851500  0.13344000  0.10727700  1
  O  O26  1  0.80148500  0.63344000  0.60727700  1
  O  O27  1  0.19851500  0.36656000  0.60727700  1
  O  O28  1  0.29953200  0.86572300  0.88441000  1
  O  O29  1  0.70046800  0.13427700  0.88441000  1
  O  O30  1  0.79953200  0.63427700  0.38441000  1
  O  O31  1  0.20046800  0.36572300  0.38441000  1
  O  O32  1  0.68577700  0.92054700  0.23416700  1
  O  O33  1  0.31422300  0.07945300  0.23416700  1
  O  O34  1  0.18577700  0.57945300  0.73416700  1
  O  O35  1  0.81422300  0.42054700  0.73416700  1
  O  O36  1  0.69211500  0.92494100  0.75963600  1
  O  O37  1  0.30788500  0.07505900  0.75963600  1
  O  O38  1  0.19211500  0.57505900  0.25963600  1
  O  O39  1  0.80788500  0.42494100  0.25963600  1
  O  O40  1  0.21109700  0.65392600  0.99843600  1
  O  O41  1  0.78890300  0.34607400  0.99843600  1
  O  O42  1  0.71109700  0.84607400  0.49843600  1
  O  O43  1  0.28890300  0.15392600  0.49843600  1
  O  O44  1  0.64969000  0.91276700  0.99580800  1
  O  O45  1  0.35031000  0.08723300  0.99580800  1
  O  O46  1  0.14969000  0.58723300  0.49580800  1
  O  O47  1  0.85031000  0.41276700  0.49580800  1
  O  O48  1  0.63538400  0.68855200  0.10765700  1
  O  O49  1  0.36461600  0.31144800  0.10765700  1
  O  O50  1  0.13538400  0.81144800  0.60765700  1
  O  O51  1  0.86461600  0.18855200  0.60765700  1
  O  O52  1  0.62758200  0.68911400  0.87968800  1
  O  O53  1  0.37241800  0.31088600  0.87968800  1
  O  O54  1  0.12758200  0.81088600  0.37968800  1
  O  O55  1  0.87241800  0.18911400  0.37968800  1
