# generated using pymatgen
data_AgNO3
_symmetry_space_group_name_H-M   'P 1'
_cell_length_a   7.08627900
_cell_length_b   7.44728300
_cell_length_c   10.29958000
_cell_angle_alpha   90.00000000
_cell_angle_beta   90.00000000
_cell_angle_gamma   90.00000000
_symmetry_Int_Tables_number   1
_chemical_formula_structural   AgNO3
_chemical_formula_sum   'Ag8 N8 O24'
_cell_volume   543.54514396
_cell_formula_units_Z   8
loop_
 _symmetry_equiv_pos_site_id
 _symmetry_equiv_pos_as_xyz
  1  'x, y, z'
loop_
 _atom_site_type_symbol
 _atom_site_label
 _atom_site_symmetry_multiplicity
 _atom_site_fract_x
 _atom_site_fract_y
 _atom_site_fract_z
 _atom_site_occupancy
  Ag  Ag0  1  0.86763300  0.48697200  0.37082800  1
  Ag  Ag1  1  0.13236700  0.98697200  0.12917200  1
  Ag  Ag2  1  0.63236700  0.98697200  0.37082800  1
  Ag  Ag3  1  0.86763300  0.01302800  0.87082800  1
  Ag  Ag4  1  0.36763300  0.48697200  0.12917200  1
  Ag  Ag5  1  0.13236700  0.51302800  0.62917200  1
  Ag  Ag6  1  0.63236700  0.51302800  0.87082800  1
  Ag  Ag7  1  0.36763300  0.01302800  0.62917200  1
  N  N8  1  0.12772800  0.86171400  0.40725900  1
  N  N9  1  0.87227200  0.13828600  0.59274100  1
  N  N10  1  0.62772800  0.63828600  0.59274100  1
  N  N11  1  0.87227200  0.36171400  0.09274100  1
  N  N12  1  0.37227200  0.36171400  0.40725900  1
  N  N13  1  0.12772800  0.63828600  0.90725900  1
  N  N14  1  0.62772800  0.86171400  0.09274100  1
  N  N15  1  0.37227200  0.13828600  0.90725900  1
  O  O16  1  0.25049400  0.97321300  0.36822300  1
  O  O17  1  0.98630900  0.20643500  0.67423400  1
  O  O18  1  0.51369100  0.70643500  0.67423400  1
  O  O19  1  0.74950600  0.02678700  0.63177700  1
  O  O20  1  0.51369100  0.79356500  0.17423400  1
  O  O21  1  0.01369100  0.70643500  0.82576600  1
  O  O22  1  0.38235600  0.17756300  0.02724000  1
  O  O23  1  0.01369100  0.79356500  0.32576600  1
  O  O24  1  0.48630900  0.20643500  0.82576600  1
  O  O25  1  0.61764400  0.82243700  0.97276000  1
  O  O26  1  0.25049400  0.52678700  0.86822300  1
  O  O27  1  0.24950600  0.47321300  0.36822300  1
  O  O28  1  0.75049400  0.97321300  0.13177700  1
  O  O29  1  0.48630900  0.29356500  0.32576600  1
  O  O30  1  0.98630900  0.29356500  0.17423400  1
  O  O31  1  0.75049400  0.52678700  0.63177700  1
  O  O32  1  0.38235600  0.32243700  0.52724000  1
  O  O33  1  0.24950600  0.02678700  0.86822300  1
  O  O34  1  0.88235600  0.17756300  0.47276000  1
  O  O35  1  0.11764400  0.82243700  0.52724000  1
  O  O36  1  0.74950600  0.47321300  0.13177700  1
  O  O37  1  0.61764400  0.67756300  0.47276000  1
  O  O38  1  0.88235600  0.32243700  0.97276000  1
  O  O39  1  0.11764400  0.67756300  0.02724000  1
