# generated using pymatgen
data_SiO2
_symmetry_space_group_name_H-M   'P 1'
_cell_length_a   7.22215200
_cell_length_b   7.22215200
_cell_length_c   21.12362600
_cell_angle_alpha   90.00000000
_cell_angle_beta   90.00000000
_cell_angle_gamma   90.00000000
_symmetry_Int_Tables_number   1
_chemical_formula_structural   SiO2
_chemical_formula_sum   'Si18 O36'
_cell_volume   1101.79733755
_cell_formula_units_Z   18
loop_
 _symmetry_equiv_pos_site_id
 _symmetry_equiv_pos_as_xyz
  1  'x, y, z'
loop_
 _atom_site_type_symbol
 _atom_site_label
 _atom_site_symmetry_multiplicity
 _atom_site_fract_x
 _atom_site_fract_y
 _atom_site_fract_z
 _atom_site_occupancy
  Si  Si0  1  0.28227100  0.50000000  0.07629100  1
  Si  Si1  1  0.50000000  0.28227100  0.57629100  1
  Si  Si2  1  0.50000000  0.71772900  0.57629100  1
  Si  Si3  1  0.28227100  0.50000000  0.92370900  1
  Si  Si4  1  0.71772900  0.50000000  0.92370900  1
  Si  Si5  1  0.71772900  0.50000000  0.07629100  1
  Si  Si6  1  0.50000000  0.28227100  0.42370900  1
  Si  Si7  1  0.50000000  0.71772900  0.42370900  1
  Si  Si8  1  0.00000000  0.79314700  0.12783700  1
  Si  Si9  1  0.20685300  0.00000000  0.62783700  1
  Si  Si10  1  0.79314700  0.00000000  0.62783700  1
  Si  Si11  1  0.00000000  0.20685300  0.87216300  1
  Si  Si12  1  0.00000000  0.79314700  0.87216300  1
  Si  Si13  1  0.00000000  0.20685300  0.12783700  1
  Si  Si14  1  0.79314700  0.00000000  0.37216300  1
  Si  Si15  1  0.20685300  0.00000000  0.37216300  1
  Si  Si16  1  0.00000000  0.00000000  0.75000000  1
  Si  Si17  1  0.00000000  0.00000000  0.25000000  1
  O  O18  1  0.25553200  0.50000000  0.00000000  1
  O  O19  1  0.50000000  0.25553200  0.50000000  1
  O  O20  1  0.50000000  0.74446800  0.50000000  1
  O  O21  1  0.74446800  0.50000000  0.00000000  1
  O  O22  1  0.18565700  0.68386000  0.10592400  1
  O  O23  1  0.31614000  0.18565700  0.60592400  1
  O  O24  1  0.68386000  0.81434300  0.60592400  1
  O  O25  1  0.18565700  0.31614000  0.89407600  1
  O  O26  1  0.81434300  0.68386000  0.89407600  1
  O  O27  1  0.81434300  0.31614000  0.10592400  1
  O  O28  1  0.68386000  0.18565700  0.39407600  1
  O  O29  1  0.31614000  0.81434300  0.39407600  1
  O  O30  1  0.81434300  0.31614000  0.89407600  1
  O  O31  1  0.68386000  0.81434300  0.39407600  1
  O  O32  1  0.31614000  0.18565700  0.39407600  1
  O  O33  1  0.81434300  0.68386000  0.10592400  1
  O  O34  1  0.18565700  0.31614000  0.10592400  1
  O  O35  1  0.18565700  0.68386000  0.89407600  1
  O  O36  1  0.31614000  0.81434300  0.60592400  1
  O  O37  1  0.68386000  0.18565700  0.60592400  1
  O  O38  1  0.50000000  0.50000000  0.09469900  1
  O  O39  1  0.50000000  0.50000000  0.59469900  1
  O  O40  1  0.50000000  0.50000000  0.90530100  1
  O  O41  1  0.50000000  0.50000000  0.40530100  1
  O  O42  1  0.00000000  0.00000000  0.09641900  1
  O  O43  1  0.00000000  0.00000000  0.59641900  1
  O  O44  1  0.00000000  0.00000000  0.90358100  1
  O  O45  1  0.00000000  0.00000000  0.40358100  1
  O  O46  1  0.00000000  0.81582800  0.20497900  1
  O  O47  1  0.18417200  0.00000000  0.70497900  1
  O  O48  1  0.81582800  0.00000000  0.70497900  1
  O  O49  1  0.00000000  0.18417200  0.79502100  1
  O  O50  1  0.00000000  0.81582800  0.79502100  1
  O  O51  1  0.00000000  0.18417200  0.20497900  1
  O  O52  1  0.81582800  0.00000000  0.29502100  1
  O  O53  1  0.18417200  0.00000000  0.29502100  1
