# generated using pymatgen
data_Rb2CuCl3
_symmetry_space_group_name_H-M   'P 1'
_cell_length_a   4.26646300
_cell_length_b   12.68873800
_cell_length_c   13.12384200
_cell_angle_alpha   90.00000000
_cell_angle_beta   90.00000000
_cell_angle_gamma   90.00000000
_symmetry_Int_Tables_number   1
_chemical_formula_structural   Rb2CuCl3
_chemical_formula_sum   'Rb8 Cu4 Cl12'
_cell_volume   710.47271989
_cell_formula_units_Z   4
loop_
 _symmetry_equiv_pos_site_id
 _symmetry_equiv_pos_as_xyz
  1  'x, y, z'
loop_
 _atom_site_type_symbol
 _atom_site_label
 _atom_site_symmetry_multiplicity
 _atom_site_fract_x
 _atom_site_fract_y
 _atom_site_fract_z
 _atom_site_occupancy
  Rb  Rb0  1  0.75000000  0.32785300  0.02474900  1
  Rb  Rb1  1  0.25000000  0.17214700  0.52474900  1
  Rb  Rb2  1  0.75000000  0.82785300  0.47525100  1
  Rb  Rb3  1  0.25000000  0.51302600  0.32655000  1
  Rb  Rb4  1  0.75000000  0.98697400  0.82655000  1
  Rb  Rb5  1  0.25000000  0.67214700  0.97525100  1
  Rb  Rb6  1  0.75000000  0.48697400  0.67345000  1
  Rb  Rb7  1  0.25000000  0.01302600  0.17345000  1
  Cu  Cu8  1  0.75000000  0.24333200  0.30991700  1
  Cu  Cu9  1  0.25000000  0.75666800  0.69008300  1
  Cu  Cu10  1  0.75000000  0.74333200  0.19008300  1
  Cu  Cu11  1  0.25000000  0.25666800  0.80991700  1
  Cl  Cl12  1  0.25000000  0.93352500  0.64110800  1
  Cl  Cl13  1  0.75000000  0.36038700  0.44676500  1
  Cl  Cl14  1  0.25000000  0.63961300  0.55323500  1
  Cl  Cl15  1  0.25000000  0.77273900  0.27822700  1
  Cl  Cl16  1  0.25000000  0.43352500  0.85889200  1
  Cl  Cl17  1  0.75000000  0.86038700  0.05323500  1
  Cl  Cl18  1  0.75000000  0.06647500  0.35889200  1
  Cl  Cl19  1  0.25000000  0.27273900  0.22177300  1
  Cl  Cl20  1  0.75000000  0.72726100  0.77822700  1
  Cl  Cl21  1  0.75000000  0.22726100  0.72177300  1
  Cl  Cl22  1  0.25000000  0.13961300  0.94676500  1
  Cl  Cl23  1  0.75000000  0.56647500  0.14110800  1
