# generated using pymatgen
data_Er5Ge3
_symmetry_space_group_name_H-M   'P 1'
_cell_length_a   8.42540768
_cell_length_b   8.42540768
_cell_length_c   6.33998800
_cell_angle_alpha   90.00000000
_cell_angle_beta   90.00000000
_cell_angle_gamma   119.99999752
_symmetry_Int_Tables_number   1
_chemical_formula_structural   Er5Ge3
_chemical_formula_sum   'Er10 Ge6'
_cell_volume   389.76328533
_cell_formula_units_Z   2
loop_
 _symmetry_equiv_pos_site_id
 _symmetry_equiv_pos_as_xyz
  1  'x, y, z'
loop_
 _atom_site_type_symbol
 _atom_site_label
 _atom_site_symmetry_multiplicity
 _atom_site_fract_x
 _atom_site_fract_y
 _atom_site_fract_z
 _atom_site_occupancy
  Er  Er0  1  0.00000000  0.75863800  0.75000000  1
  Er  Er1  1  0.00000000  0.24136200  0.25000000  1
  Er  Er2  1  0.75863800  0.75863800  0.25000000  1
  Er  Er3  1  0.75863800  0.00000000  0.75000000  1
  Er  Er4  1  0.24136200  0.24136200  0.75000000  1
  Er  Er5  1  0.24136200  0.00000000  0.25000000  1
  Er  Er6  1  0.33333300  0.66666700  0.50000000  1
  Er  Er7  1  0.66666700  0.33333300  0.00000000  1
  Er  Er8  1  0.66666700  0.33333300  0.50000000  1
  Er  Er9  1  0.33333300  0.66666700  0.00000000  1
  Ge  Ge10  1  0.39399700  0.00000000  0.75000000  1
  Ge  Ge11  1  0.39399700  0.39399700  0.25000000  1
  Ge  Ge12  1  0.00000000  0.60600300  0.25000000  1
  Ge  Ge13  1  0.00000000  0.39399700  0.75000000  1
  Ge  Ge14  1  0.60600300  0.60600300  0.75000000  1
  Ge  Ge15  1  0.60600300  0.00000000  0.25000000  1
