# generated using pymatgen
data_Bi2PbS4
_symmetry_space_group_name_H-M   'P 1'
_cell_length_a   4.13292200
_cell_length_b   11.89535200
_cell_length_c   14.68644600
_cell_angle_alpha   90.00000000
_cell_angle_beta   90.00000000
_cell_angle_gamma   90.00000000
_symmetry_Int_Tables_number   1
_chemical_formula_structural   Bi2PbS4
_chemical_formula_sum   'Bi8 Pb4 S16'
_cell_volume   722.02331172
_cell_formula_units_Z   4
loop_
 _symmetry_equiv_pos_site_id
 _symmetry_equiv_pos_as_xyz
  1  'x, y, z'
loop_
 _atom_site_type_symbol
 _atom_site_label
 _atom_site_symmetry_multiplicity
 _atom_site_fract_x
 _atom_site_fract_y
 _atom_site_fract_z
 _atom_site_occupancy
  Bi  Bi0  1  0.25000000  0.89766300  0.09723500  1
  Bi  Bi1  1  0.75000000  0.10233700  0.90276500  1
  Bi  Bi2  1  0.75000000  0.56728300  0.10860100  1
  Bi  Bi3  1  0.25000000  0.39766300  0.40276500  1
  Bi  Bi4  1  0.75000000  0.60233700  0.59723500  1
  Bi  Bi5  1  0.25000000  0.93271700  0.60860100  1
  Bi  Bi6  1  0.25000000  0.43271700  0.89139900  1
  Bi  Bi7  1  0.75000000  0.06728300  0.39139900  1
  Pb  Pb8  1  0.75000000  0.74608900  0.84752900  1
  Pb  Pb9  1  0.25000000  0.75391100  0.34752900  1
  Pb  Pb10  1  0.25000000  0.25391100  0.15247100  1
  Pb  Pb11  1  0.75000000  0.24608900  0.65247100  1
  S  S12  1  0.75000000  0.33632900  0.01237500  1
  S  S13  1  0.25000000  0.73744800  0.69947800  1
  S  S14  1  0.25000000  0.94742500  0.90945200  1
  S  S15  1  0.75000000  0.83632900  0.48762500  1
  S  S16  1  0.75000000  0.05257500  0.09054800  1
  S  S17  1  0.75000000  0.26255200  0.30052200  1
  S  S18  1  0.25000000  0.44742500  0.59054800  1
  S  S19  1  0.25000000  0.66367100  0.98762500  1
  S  S20  1  0.25000000  0.48224700  0.21263700  1
  S  S21  1  0.25000000  0.98224700  0.28736300  1
  S  S22  1  0.75000000  0.51775300  0.78736300  1
  S  S23  1  0.25000000  0.16367100  0.51237500  1
  S  S24  1  0.75000000  0.01775300  0.71263700  1
  S  S25  1  0.75000000  0.76255200  0.19947800  1
  S  S26  1  0.25000000  0.23744800  0.80052200  1
  S  S27  1  0.75000000  0.55257500  0.40945200  1
