# generated using pymatgen
data_BaCu13
_symmetry_space_group_name_H-M   'P 1'
_cell_length_a   8.28266417
_cell_length_b   8.28266417
_cell_length_c   8.28266417
_cell_angle_alpha   60.00000000
_cell_angle_beta   60.00000000
_cell_angle_gamma   60.00000000
_symmetry_Int_Tables_number   1
_chemical_formula_structural   BaCu13
_chemical_formula_sum   'Ba2 Cu26'
_cell_volume   401.78633333
_cell_formula_units_Z   2
loop_
 _symmetry_equiv_pos_site_id
 _symmetry_equiv_pos_as_xyz
  1  'x, y, z'
loop_
 _atom_site_type_symbol
 _atom_site_label
 _atom_site_symmetry_multiplicity
 _atom_site_fract_x
 _atom_site_fract_y
 _atom_site_fract_z
 _atom_site_occupancy
  Ba  Ba0  1  0.25000000  0.25000000  0.25000000  1
  Ba  Ba1  1  0.75000000  0.75000000  0.75000000  1
  Cu  Cu2  1  0.00000000  0.00000000  0.00000000  1
  Cu  Cu3  1  0.50000000  0.50000000  0.50000000  1
  Cu  Cu4  1  0.93538600  0.70575800  0.29424200  1
  Cu  Cu5  1  0.43538600  0.20575800  0.56461400  1
  Cu  Cu6  1  0.20575800  0.43538600  0.79424200  1
  Cu  Cu7  1  0.79424200  0.20575800  0.43538600  1
  Cu  Cu8  1  0.43538600  0.56461400  0.79424200  1
  Cu  Cu9  1  0.20575800  0.56461400  0.43538600  1
  Cu  Cu10  1  0.79424200  0.43538600  0.56461400  1
  Cu  Cu11  1  0.29424200  0.93538600  0.70575800  1
  Cu  Cu12  1  0.70575800  0.29424200  0.93538600  1
  Cu  Cu13  1  0.93538600  0.06461400  0.70575800  1
  Cu  Cu14  1  0.93538600  0.29424200  0.06461400  1
  Cu  Cu15  1  0.70575800  0.06461400  0.29424200  1
  Cu  Cu16  1  0.06461400  0.93538600  0.29424200  1
  Cu  Cu17  1  0.06461400  0.70575800  0.93538600  1
  Cu  Cu18  1  0.29424200  0.70575800  0.06461400  1
  Cu  Cu19  1  0.56461400  0.43538600  0.20575800  1
  Cu  Cu20  1  0.56461400  0.79424200  0.43538600  1
  Cu  Cu21  1  0.43538600  0.79424200  0.20575800  1
  Cu  Cu22  1  0.56461400  0.20575800  0.79424200  1
  Cu  Cu23  1  0.79424200  0.56461400  0.20575800  1
  Cu  Cu24  1  0.20575800  0.79424200  0.56461400  1
  Cu  Cu25  1  0.70575800  0.93538600  0.06461400  1
  Cu  Cu26  1  0.29424200  0.06461400  0.93538600  1
  Cu  Cu27  1  0.06461400  0.29424200  0.70575800  1
