# generated using pymatgen
data_RbVSO6
_symmetry_space_group_name_H-M   'P 1'
_cell_length_a   5.63677900
_cell_length_b   9.04028700
_cell_length_c   10.96917300
_cell_angle_alpha   90.00000000
_cell_angle_beta   90.00000000
_cell_angle_gamma   90.00000000
_symmetry_Int_Tables_number   1
_chemical_formula_structural   RbVSO6
_chemical_formula_sum   'Rb4 V4 S4 O24'
_cell_volume   558.96821373
_cell_formula_units_Z   4
loop_
 _symmetry_equiv_pos_site_id
 _symmetry_equiv_pos_as_xyz
  1  'x, y, z'
loop_
 _atom_site_type_symbol
 _atom_site_label
 _atom_site_symmetry_multiplicity
 _atom_site_fract_x
 _atom_site_fract_y
 _atom_site_fract_z
 _atom_site_occupancy
  Rb  Rb0  1  0.00328200  0.68802900  0.84376500  1
  Rb  Rb1  1  0.49671800  0.31197100  0.34376500  1
  Rb  Rb2  1  0.50328200  0.81197100  0.15623500  1
  Rb  Rb3  1  0.99671800  0.18802900  0.65623500  1
  V  V4  1  0.54059800  0.84688400  0.55953300  1
  V  V5  1  0.04059800  0.65311600  0.44046700  1
  V  V6  1  0.45940200  0.34688400  0.94046700  1
  V  V7  1  0.95940200  0.15311600  0.05953300  1
  S  S8  1  0.51846600  0.45778500  0.71164100  1
  S  S9  1  0.98153400  0.54221500  0.21164100  1
  S  S10  1  0.01846600  0.04221500  0.28835900  1
  S  S11  1  0.48153400  0.95778500  0.78835900  1
  O  O12  1  0.19970400  0.09490300  0.19119600  1
  O  O13  1  0.80029600  0.59490300  0.30880400  1
  O  O14  1  0.70949000  0.91610500  0.71929400  1
  O  O15  1  0.55216600  0.00132800  0.48423500  1
  O  O16  1  0.96510000  0.38240500  0.19828700  1
  O  O17  1  0.94783400  0.99867200  0.98423500  1
  O  O18  1  0.67552100  0.24142600  0.02071000  1
  O  O19  1  0.54507600  0.37328000  0.59986200  1
  O  O20  1  0.29051000  0.41610500  0.78070600  1
  O  O21  1  0.82447900  0.75857400  0.52071000  1
  O  O22  1  0.32447900  0.74142600  0.47929000  1
  O  O23  1  0.17552100  0.25857400  0.97929000  1
  O  O24  1  0.20949000  0.58389500  0.28070600  1
  O  O25  1  0.04507600  0.12672000  0.40013800  1
  O  O26  1  0.79051000  0.08389500  0.21929400  1
  O  O27  1  0.95492400  0.62672000  0.09986200  1
  O  O28  1  0.03490000  0.88240500  0.30171300  1
  O  O29  1  0.45492400  0.87328000  0.90013800  1
  O  O30  1  0.30029600  0.90509700  0.69119600  1
  O  O31  1  0.69970400  0.40509700  0.80880400  1
  O  O32  1  0.44783400  0.50132800  0.01576500  1
  O  O33  1  0.53490000  0.61759500  0.69828700  1
  O  O34  1  0.05216600  0.49867200  0.51576500  1
  O  O35  1  0.46510000  0.11759500  0.80171300  1
