# generated using pymatgen
data_Y2V2O7
_symmetry_space_group_name_H-M   'P 1'
_cell_length_a   7.16900213
_cell_length_b   7.16900242
_cell_length_c   7.16900100
_cell_angle_alpha   60.00000194
_cell_angle_beta   60.00000059
_cell_angle_gamma   59.99999907
_symmetry_Int_Tables_number   1
_chemical_formula_structural   Y2V2O7
_chemical_formula_sum   'Y4 V4 O14'
_cell_volume   260.53200676
_cell_formula_units_Z   2
loop_
 _symmetry_equiv_pos_site_id
 _symmetry_equiv_pos_as_xyz
  1  'x, y, z'
loop_
 _atom_site_type_symbol
 _atom_site_label
 _atom_site_symmetry_multiplicity
 _atom_site_fract_x
 _atom_site_fract_y
 _atom_site_fract_z
 _atom_site_occupancy
  Y  Y0  1  0.50000000  0.00000000  0.00000000  1
  Y  Y1  1  0.00000000  0.00000000  0.00000000  1
  Y  Y2  1  0.00000000  0.00000000  0.50000000  1
  Y  Y3  1  0.00000000  0.50000000  0.00000000  1
  V  V4  1  0.50000000  0.50000000  0.50000000  1
  V  V5  1  0.50000000  0.50000000  0.00000000  1
  V  V6  1  0.00000000  0.50000000  0.50000000  1
  V  V7  1  0.50000000  0.00000000  0.50000000  1
  O  O8  1  0.58092500  0.16907500  0.58092500  1
  O  O9  1  0.16907500  0.16907500  0.58092500  1
  O  O10  1  0.58092500  0.16907500  0.16907500  1
  O  O11  1  0.16907500  0.58092500  0.16907500  1
  O  O12  1  0.41907500  0.83092500  0.83092500  1
  O  O13  1  0.83092500  0.83092500  0.41907500  1
  O  O14  1  0.83092500  0.41907500  0.41907500  1
  O  O15  1  0.12500000  0.12500000  0.12500000  1
  O  O16  1  0.41907500  0.41907500  0.83092500  1
  O  O17  1  0.58092500  0.58092500  0.16907500  1
  O  O18  1  0.16907500  0.58092500  0.58092500  1
  O  O19  1  0.87500000  0.87500000  0.87500000  1
  O  O20  1  0.41907500  0.83092500  0.41907500  1
  O  O21  1  0.83092500  0.41907500  0.83092500  1
