# generated using pymatgen
data_KHO
_symmetry_space_group_name_H-M   'P 1'
_cell_length_a   3.97908700
_cell_length_b   5.99113800
_cell_length_c   8.04629470
_cell_angle_alpha   66.62581110
_cell_angle_beta   90.00000000
_cell_angle_gamma   90.00000000
_symmetry_Int_Tables_number   1
_chemical_formula_structural   KHO
_chemical_formula_sum   'K4 H4 O4'
_cell_volume   176.07588737
_cell_formula_units_Z   4
loop_
 _symmetry_equiv_pos_site_id
 _symmetry_equiv_pos_as_xyz
  1  'x, y, z'
loop_
 _atom_site_type_symbol
 _atom_site_label
 _atom_site_symmetry_multiplicity
 _atom_site_fract_x
 _atom_site_fract_y
 _atom_site_fract_z
 _atom_site_occupancy
  K  K0  1  0.75389000  0.29185000  0.43721800  1
  K  K1  1  0.74611000  0.29185000  0.93721800  1
  K  K2  1  0.24611000  0.70815000  0.56278200  1
  K  K3  1  0.25389000  0.70815000  0.06278200  1
  H  H4  1  0.64874600  0.92899500  0.26427000  1
  H  H5  1  0.85125400  0.92899500  0.76427000  1
  H  H6  1  0.35125400  0.07100500  0.73573000  1
  H  H7  1  0.14874600  0.07100500  0.23573000  1
  O  O8  1  0.76545100  0.77665500  0.28710200  1
  O  O9  1  0.73454900  0.77665500  0.78710200  1
  O  O10  1  0.23454900  0.22334500  0.71289800  1
  O  O11  1  0.26545100  0.22334500  0.21289800  1
