# generated using pymatgen
data_CaC2
_symmetry_space_group_name_H-M   'P 1'
_cell_length_a   3.93076600
_cell_length_b   3.96984475
_cell_length_c   7.44975234
_cell_angle_alpha   101.21007744
_cell_angle_beta   85.54205829
_cell_angle_gamma   119.53073083
_symmetry_Int_Tables_number   1
_chemical_formula_structural   CaC2
_chemical_formula_sum   'Ca2 C4'
_cell_volume   99.19593134
_cell_formula_units_Z   2
loop_
 _symmetry_equiv_pos_site_id
 _symmetry_equiv_pos_as_xyz
  1  'x, y, z'
loop_
 _atom_site_type_symbol
 _atom_site_label
 _atom_site_symmetry_multiplicity
 _atom_site_fract_x
 _atom_site_fract_y
 _atom_site_fract_z
 _atom_site_occupancy
  Ca  Ca0  1  0.77067100  0.96434300  0.24585600  1
  Ca  Ca1  1  0.22932900  0.03565700  0.75414400  1
  C  C2  1  0.87056500  0.43044700  0.93763700  1
  C  C3  1  0.12943500  0.56955300  0.06236300  1
  C  C4  1  0.55436200  0.63592300  0.56936500  1
  C  C5  1  0.44563800  0.36407700  0.43063500  1
