# generated using pymatgen
data_CrBi12Mo4PbO34
_symmetry_space_group_name_H-M   'P 1'
_cell_length_a   5.89318900
_cell_length_b   11.82904000
_cell_length_c   25.25665472
_cell_angle_alpha   78.12040760
_cell_angle_beta   90.00000000
_cell_angle_gamma   90.00000000
_symmetry_Int_Tables_number   1
_chemical_formula_structural   CrBi12Mo4PbO34
_chemical_formula_sum   'Cr2 Bi24 Mo8 Pb2 O68'
_cell_volume   1722.95162384
_cell_formula_units_Z   2
loop_
 _symmetry_equiv_pos_site_id
 _symmetry_equiv_pos_as_xyz
  1  'x, y, z'
loop_
 _atom_site_type_symbol
 _atom_site_label
 _atom_site_symmetry_multiplicity
 _atom_site_fract_x
 _atom_site_fract_y
 _atom_site_fract_z
 _atom_site_occupancy
  Cr  Cr0  1  0.98618900  0.50000000  0.75000000  1
  Cr  Cr1  1  0.01381100  0.50000000  0.25000000  1
  Bi  Bi2  1  0.92207100  0.84132300  0.24500600  1
  Bi  Bi3  1  0.01622200  0.08240200  0.40798200  1
  Bi  Bi4  1  0.48807200  0.72998200  0.65913200  1
  Bi  Bi5  1  0.98377800  0.91759800  0.59201800  1
  Bi  Bi6  1  0.97730600  0.24371300  0.60100300  1
  Bi  Bi7  1  0.92207100  0.15867700  0.25499400  1
  Bi  Bi8  1  0.51192800  0.72998200  0.15913200  1
  Bi  Bi9  1  0.48809000  0.36183000  0.67895400  1
  Bi  Bi10  1  0.07792900  0.15867700  0.75499400  1
  Bi  Bi11  1  0.57719900  0.95989000  0.82601000  1
  Bi  Bi12  1  0.48807200  0.27001800  0.84086800  1
  Bi  Bi13  1  0.07792900  0.84132300  0.74500600  1
  Bi  Bi14  1  0.51191000  0.36183000  0.17895400  1
  Bi  Bi15  1  0.98377800  0.08240200  0.90798200  1
  Bi  Bi16  1  0.48809000  0.63817000  0.82104600  1
  Bi  Bi17  1  0.57719900  0.04011000  0.67399000  1
  Bi  Bi18  1  0.51191000  0.63817000  0.32104600  1
  Bi  Bi19  1  0.51192800  0.27001800  0.34086800  1
  Bi  Bi20  1  0.97730600  0.75628700  0.89899700  1
  Bi  Bi21  1  0.42280100  0.04011000  0.17399000  1
  Bi  Bi22  1  0.02269400  0.24371300  0.10100300  1
  Bi  Bi23  1  0.01622200  0.91759800  0.09201800  1
  Bi  Bi24  1  0.02269400  0.75628700  0.39899700  1
  Bi  Bi25  1  0.42280100  0.95989000  0.32601000  1
  Mo  Mo26  1  0.99989900  0.57367300  0.57831700  1
  Mo  Mo27  1  0.00010100  0.42632700  0.42168300  1
  Mo  Mo28  1  0.47888300  0.83726800  0.98683600  1
  Mo  Mo29  1  0.52111700  0.16273200  0.01316400  1
  Mo  Mo30  1  0.99989900  0.42632700  0.92168300  1
  Mo  Mo31  1  0.52111700  0.83726800  0.48683600  1
  Mo  Mo32  1  0.47888300  0.16273200  0.51316400  1
  Mo  Mo33  1  0.00010100  0.57367300  0.07831700  1
  Pb  Pb34  1  0.50000000  0.50000000  0.00000000  1
  Pb  Pb35  1  0.50000000  0.50000000  0.50000000  1
  O  O36  1  0.18015300  0.61781800  0.24035800  1
  O  O37  1  0.27290800  0.49946100  0.91657300  1
  O  O38  1  0.57007200  0.28549000  0.54034000  1
  O  O39  1  0.78166800  0.53094900  0.89702200  1
  O  O40  1  0.77051700  0.76308900  0.33556200  1
  O  O41  1  0.84756700  0.50143600  0.19655800  1
  O  O42  1  0.75588100  0.87098700  0.15434200  1
  O  O43  1  0.22948300  0.23691100  0.66443800  1
  O  O44  1  0.72542500  0.22804400  0.66744200  1
  O  O45  1  0.21833200  0.53094900  0.39702200  1
  O  O46  1  0.75588100  0.12901300  0.34565800  1
  O  O47  1  0.68880500  0.94591700  0.96820400  1
  O  O48  1  0.81984700  0.61781800  0.74035800  1
  O  O49  1  0.06796600  0.37560500  0.49111300  1
  O  O50  1  0.77051700  0.23691100  0.16443800  1
  O  O51  1  0.26875200  0.00000000  0.75000000  1
  O  O52  1  0.26499600  0.86280000  0.15806700  1
  O  O53  1  0.24411900  0.12901300  0.84565800  1
  O  O54  1  0.53821000  0.20354700  0.94051000  1
  O  O55  1  0.40402600  0.25702300  0.75786400  1
  O  O56  1  0.59597400  0.25702300  0.25786400  1
  O  O57  1  0.27290800  0.50053900  0.58342700  1
  O  O58  1  0.93203400  0.62439500  0.50888700  1
  O  O59  1  0.27457500  0.22804400  0.16744200  1
  O  O60  1  0.46179000  0.20354700  0.44051000  1
  O  O61  1  0.07523100  0.93872500  0.36673100  1
  O  O62  1  0.21261700  0.11309500  0.54556300  1
  O  O63  1  0.21261700  0.88690500  0.95443700  1
  O  O64  1  0.75970000  0.00000000  0.75000000  1
  O  O65  1  0.18015300  0.38218200  0.25964200  1
  O  O66  1  0.78166800  0.46905100  0.60297800  1
  O  O67  1  0.72542500  0.77195600  0.83255800  1
  O  O68  1  0.31119500  0.94591700  0.46820400  1
  O  O69  1  0.00489400  0.30352200  0.88942700  1
  O  O70  1  0.92476900  0.06127500  0.63326900  1
  O  O71  1  0.15243300  0.50143600  0.69655800  1
  O  O72  1  0.73124800  0.00000000  0.25000000  1
  O  O73  1  0.31119500  0.05408300  0.03179600  1
  O  O74  1  0.73500400  0.86280000  0.65806700  1
  O  O75  1  0.68880500  0.05408300  0.53179600  1
  O  O76  1  0.46179000  0.79645300  0.05949000  1
  O  O77  1  0.24411900  0.87098700  0.65434200  1
  O  O78  1  0.99510600  0.30352200  0.38942700  1
  O  O79  1  0.93203400  0.37560500  0.99111300  1
  O  O80  1  0.92476900  0.93872500  0.86673100  1
  O  O81  1  0.21833200  0.46905100  0.10297800  1
  O  O82  1  0.73500400  0.13720000  0.84193300  1
  O  O83  1  0.27457500  0.77195600  0.33255800  1
  O  O84  1  0.57007200  0.71451000  0.95966000  1
  O  O85  1  0.26499600  0.13720000  0.34193300  1
  O  O86  1  0.24030000  0.00000000  0.25000000  1
  O  O87  1  0.53821000  0.79645300  0.55949000  1
  O  O88  1  0.22948300  0.76308900  0.83556200  1
  O  O89  1  0.72709200  0.50053900  0.08342700  1
  O  O90  1  0.00489400  0.69647800  0.61057300  1
  O  O91  1  0.42992800  0.71451000  0.45966000  1
  O  O92  1  0.42992800  0.28549000  0.04034000  1
  O  O93  1  0.78738300  0.88690500  0.45443700  1
  O  O94  1  0.40402600  0.74297700  0.74213600  1
  O  O95  1  0.84756700  0.49856400  0.30344200  1
  O  O96  1  0.06796600  0.62439500  0.00888700  1
  O  O97  1  0.07523100  0.06127500  0.13326900  1
  O  O98  1  0.78738300  0.11309500  0.04556300  1
  O  O99  1  0.59597400  0.74297700  0.24213600  1
  O  O100  1  0.72709200  0.49946100  0.41657300  1
  O  O101  1  0.15243300  0.49856400  0.80344200  1
  O  O102  1  0.81984700  0.38218200  0.75964200  1
  O  O103  1  0.99510600  0.69647800  0.11057300  1
