# generated using pymatgen
data_SrCrBi12(Mo2O17)2
_symmetry_space_group_name_H-M   'P 1'
_cell_length_a   5.87921900
_cell_length_b   11.87990000
_cell_length_c   25.24782400
_cell_angle_alpha   78.17054482
_cell_angle_beta   90.00000000
_cell_angle_gamma   90.00000000
_symmetry_Int_Tables_number   1
_chemical_formula_structural   SrCrBi12(Mo2O17)2
_chemical_formula_sum   'Sr2 Cr2 Bi24 Mo8 O68'
_cell_volume   1725.97115923
_cell_formula_units_Z   2
loop_
 _symmetry_equiv_pos_site_id
 _symmetry_equiv_pos_as_xyz
  1  'x, y, z'
loop_
 _atom_site_type_symbol
 _atom_site_label
 _atom_site_symmetry_multiplicity
 _atom_site_fract_x
 _atom_site_fract_y
 _atom_site_fract_z
 _atom_site_occupancy
  Sr  Sr0  1  0.50000000  0.00000000  0.50000000  1
  Sr  Sr1  1  0.50000000  0.00000000  0.00000000  1
  Cr  Cr2  1  0.01641300  0.00000000  0.75000000  1
  Cr  Cr3  1  0.98358700  0.00000000  0.25000000  1
  Bi  Bi4  1  0.50535600  0.76944100  0.84074000  1
  Bi  Bi5  1  0.98739800  0.41683300  0.09266500  1
  Bi  Bi6  1  0.91613000  0.65904300  0.75457200  1
  Bi  Bi7  1  0.49365100  0.13824600  0.32126200  1
  Bi  Bi8  1  0.41843200  0.45953100  0.82558900  1
  Bi  Bi9  1  0.01755700  0.74142700  0.60044100  1
  Bi  Bi10  1  0.98244300  0.74142700  0.10044100  1
  Bi  Bi11  1  0.98244300  0.25857300  0.39955900  1
  Bi  Bi12  1  0.08387000  0.34095700  0.24542800  1
  Bi  Bi13  1  0.41843200  0.54046900  0.67441100  1
  Bi  Bi14  1  0.49464400  0.76944100  0.34074000  1
  Bi  Bi15  1  0.98739800  0.58316700  0.40733500  1
  Bi  Bi16  1  0.58156800  0.45953100  0.32558900  1
  Bi  Bi17  1  0.49464400  0.23055900  0.15926000  1
  Bi  Bi18  1  0.08387000  0.65904300  0.25457200  1
  Bi  Bi19  1  0.01755700  0.25857300  0.89955900  1
  Bi  Bi20  1  0.58156800  0.54046900  0.17441100  1
  Bi  Bi21  1  0.91613000  0.34095700  0.74542800  1
  Bi  Bi22  1  0.50634900  0.86175400  0.67873800  1
  Bi  Bi23  1  0.49365100  0.86175400  0.17873800  1
  Bi  Bi24  1  0.01260200  0.41683300  0.59266500  1
  Bi  Bi25  1  0.50634900  0.13824600  0.82126200  1
  Bi  Bi26  1  0.50535600  0.23055900  0.65926000  1
  Bi  Bi27  1  0.01260200  0.58316700  0.90733500  1
  Mo  Mo28  1  0.99158400  0.92639400  0.42251000  1
  Mo  Mo29  1  0.00841600  0.92639400  0.92251000  1
  Mo  Mo30  1  0.50737700  0.66821200  0.51235300  1
  Mo  Mo31  1  0.50737700  0.33178800  0.98764700  1
  Mo  Mo32  1  0.49262300  0.66821200  0.01235300  1
  Mo  Mo33  1  0.99158400  0.07360600  0.07749000  1
  Mo  Mo34  1  0.49262300  0.33178800  0.48764700  1
  Mo  Mo35  1  0.00841600  0.07360600  0.57749000  1
  O  O36  1  0.40887000  0.24252100  0.24246600  1
  O  O37  1  0.81720700  0.11777500  0.24086100  1
  O  O38  1  0.85137000  0.00201000  0.69638300  1
  O  O39  1  0.78474500  0.96453700  0.10483400  1
  O  O40  1  0.41495900  0.79376800  0.53619300  1
  O  O41  1  0.26736300  0.00675600  0.07962700  1
  O  O42  1  0.72684400  0.27235300  0.33330800  1
  O  O43  1  0.76631100  0.50000000  0.25000000  1
  O  O44  1  0.92959600  0.56049700  0.13396100  1
  O  O45  1  0.89702400  0.87799100  0.49054700  1
  O  O46  1  0.10297600  0.12200900  0.50945300  1
  O  O47  1  0.24778200  0.63024500  0.34521900  1
  O  O48  1  0.25916300  0.36259200  0.65913900  1
  O  O49  1  0.44746200  0.69859700  0.93997400  1
  O  O50  1  0.24259800  0.61259200  0.05065000  1
  O  O51  1  0.07040400  0.43950300  0.86603900  1
  O  O52  1  0.81720700  0.88222500  0.25913900  1
  O  O53  1  0.89702400  0.12200900  0.00945300  1
  O  O54  1  0.58504100  0.20623200  0.46380700  1
  O  O55  1  0.78474500  0.03546300  0.39516600  1
  O  O56  1  0.75221800  0.63024500  0.84521900  1
  O  O57  1  0.26736300  0.99324400  0.42037300  1
  O  O58  1  0.10297600  0.87799100  0.99054700  1
  O  O59  1  0.85137000  0.99799000  0.80361700  1
  O  O60  1  0.59113000  0.24252100  0.74246600  1
  O  O61  1  0.72623800  0.50000000  0.75000000  1
  O  O62  1  0.28008200  0.56855800  0.52791200  1
  O  O63  1  0.27376200  0.50000000  0.25000000  1
  O  O64  1  0.40887000  0.75747900  0.25753400  1
  O  O65  1  0.23168100  0.73850700  0.16387400  1
  O  O66  1  0.18279300  0.11777500  0.74086100  1
  O  O67  1  0.14863000  0.00201000  0.19638300  1
  O  O68  1  0.74083700  0.63740800  0.34086100  1
  O  O69  1  0.21525500  0.96453700  0.60483400  1
  O  O70  1  0.75740200  0.61259200  0.55065000  1
  O  O71  1  0.23168100  0.26149300  0.33612600  1
  O  O72  1  0.21525500  0.03546300  0.89516600  1
  O  O73  1  0.41495900  0.20623200  0.96380700  1
  O  O74  1  0.23368900  0.50000000  0.75000000  1
  O  O75  1  0.99449100  0.80320700  0.89091000  1
  O  O76  1  0.73263700  0.00675600  0.57962700  1
  O  O77  1  0.25916300  0.63740800  0.84086100  1
  O  O78  1  0.59113000  0.75747900  0.75753400  1
  O  O79  1  0.99449100  0.19679300  0.60909000  1
  O  O80  1  0.75740200  0.38740800  0.94935000  1
  O  O81  1  0.75221800  0.36975500  0.65478100  1
  O  O82  1  0.24259800  0.38740800  0.44935000  1
  O  O83  1  0.55253800  0.30140300  0.06002600  1
  O  O84  1  0.24778200  0.36975500  0.15478100  1
  O  O85  1  0.76831900  0.73850700  0.66387400  1
  O  O86  1  0.76831900  0.26149300  0.83612600  1
  O  O87  1  0.00550900  0.80320700  0.39091000  1
  O  O88  1  0.07040400  0.56049700  0.63396100  1
  O  O89  1  0.73263700  0.99324400  0.92037300  1
  O  O90  1  0.14863000  0.99799000  0.30361700  1
  O  O91  1  0.28008200  0.43144200  0.97208800  1
  O  O92  1  0.27315600  0.72764700  0.66669200  1
  O  O93  1  0.72684400  0.72764700  0.16669200  1
  O  O94  1  0.00550900  0.19679300  0.10909000  1
  O  O95  1  0.74083700  0.36259200  0.15913900  1
  O  O96  1  0.58504100  0.79376800  0.03619300  1
  O  O97  1  0.18279300  0.88222500  0.75913900  1
  O  O98  1  0.27315600  0.27235300  0.83330800  1
  O  O99  1  0.92959600  0.43950300  0.36603900  1
  O  O100  1  0.55253800  0.69859700  0.43997400  1
  O  O101  1  0.71991800  0.56855800  0.02791200  1
  O  O102  1  0.44746200  0.30140300  0.56002600  1
  O  O103  1  0.71991800  0.43144200  0.47208800  1
