# generated using pymatgen
data_RbHO
_symmetry_space_group_name_H-M   'P 1'
_cell_length_a   4.27345300
_cell_length_b   4.20615200
_cell_length_c   6.14304344
_cell_angle_alpha   75.00961361
_cell_angle_beta   90.00000000
_cell_angle_gamma   90.00000000
_symmetry_Int_Tables_number   1
_chemical_formula_structural   RbHO
_chemical_formula_sum   'Rb2 H2 O2'
_cell_volume   106.66225919
_cell_formula_units_Z   2
loop_
 _symmetry_equiv_pos_site_id
 _symmetry_equiv_pos_as_xyz
  1  'x, y, z'
loop_
 _atom_site_type_symbol
 _atom_site_label
 _atom_site_symmetry_multiplicity
 _atom_site_fract_x
 _atom_site_fract_y
 _atom_site_fract_z
 _atom_site_occupancy
  Rb  Rb0  1  0.75000000  0.83013300  0.28795600  1
  Rb  Rb1  1  0.25000000  0.16986700  0.71204400  1
  H  H2  1  0.75000000  0.53707500  0.90778000  1
  H  H3  1  0.25000000  0.46292500  0.09222000  1
  O  O4  1  0.75000000  0.67774600  0.75479100  1
  O  O5  1  0.25000000  0.32225400  0.24520900  1
