# generated using pymatgen
data_YbMgNiH4
_symmetry_space_group_name_H-M   'P 1'
_cell_length_a   6.62761300
_cell_length_b   6.62761300
_cell_length_c   6.62761300
_cell_angle_alpha   90.00000000
_cell_angle_beta   90.00000000
_cell_angle_gamma   90.00000000
_symmetry_Int_Tables_number   1
_chemical_formula_structural   YbMgNiH4
_chemical_formula_sum   'Yb4 Mg4 Ni4 H16'
_cell_volume   291.11958495
_cell_formula_units_Z   4
loop_
 _symmetry_equiv_pos_site_id
 _symmetry_equiv_pos_as_xyz
  1  'x, y, z'
loop_
 _atom_site_type_symbol
 _atom_site_label
 _atom_site_symmetry_multiplicity
 _atom_site_fract_x
 _atom_site_fract_y
 _atom_site_fract_z
 _atom_site_occupancy
  Yb  Yb0  1  0.16583400  0.66583400  0.83416600  1
  Yb  Yb1  1  0.66583400  0.83416600  0.16583400  1
  Yb  Yb2  1  0.83416600  0.16583400  0.66583400  1
  Yb  Yb3  1  0.33416600  0.33416600  0.33416600  1
  Mg  Mg4  1  0.84139200  0.34139200  0.15860800  1
  Mg  Mg5  1  0.34139200  0.15860800  0.84139200  1
  Mg  Mg6  1  0.15860800  0.84139200  0.34139200  1
  Mg  Mg7  1  0.65860800  0.65860800  0.65860800  1
  Ni  Ni8  1  0.45396300  0.95396300  0.54603700  1
  Ni  Ni9  1  0.95396300  0.54603700  0.45396300  1
  Ni  Ni10  1  0.54603700  0.45396300  0.95396300  1
  Ni  Ni11  1  0.04603700  0.04603700  0.04603700  1
  H  H12  1  0.59128100  0.09128100  0.40871900  1
  H  H13  1  0.09128100  0.40871900  0.59128100  1
  H  H14  1  0.40871900  0.59128100  0.09128100  1
  H  H15  1  0.90871900  0.90871900  0.90871900  1
  H  H16  1  0.26455900  0.94723300  0.06341900  1
  H  H17  1  0.93658100  0.76455900  0.55276700  1
  H  H18  1  0.44723300  0.43658100  0.73544100  1
  H  H19  1  0.76455900  0.55276700  0.93658100  1
  H  H20  1  0.43658100  0.73544100  0.44723300  1
  H  H21  1  0.94723300  0.06341900  0.26455900  1
  H  H22  1  0.73544100  0.44723300  0.43658100  1
  H  H23  1  0.06341900  0.26455900  0.94723300  1
  H  H24  1  0.55276700  0.93658100  0.76455900  1
  H  H25  1  0.23544100  0.05276700  0.56341900  1
  H  H26  1  0.56341900  0.23544100  0.05276700  1
  H  H27  1  0.05276700  0.56341900  0.23544100  1
