# generated using pymatgen
data_SnHg2(SBr)2
_symmetry_space_group_name_H-M   'P 1'
_cell_length_a   8.24090400
_cell_length_b   9.60794700
_cell_length_c   12.90337503
_cell_angle_alpha   56.42028076
_cell_angle_beta   90.00000000
_cell_angle_gamma   90.00000000
_symmetry_Int_Tables_number   1
_chemical_formula_structural   SnHg2(SBr)2
_chemical_formula_sum   'Sn4 Hg8 S8 Br8'
_cell_volume   851.16705721
_cell_formula_units_Z   4
loop_
 _symmetry_equiv_pos_site_id
 _symmetry_equiv_pos_as_xyz
  1  'x, y, z'
loop_
 _atom_site_type_symbol
 _atom_site_label
 _atom_site_symmetry_multiplicity
 _atom_site_fract_x
 _atom_site_fract_y
 _atom_site_fract_z
 _atom_site_occupancy
  Sn  Sn0  1  0.41520700  0.14280900  0.57482900  1
  Sn  Sn1  1  0.08479300  0.14280900  0.07482900  1
  Sn  Sn2  1  0.58479300  0.85719100  0.42517100  1
  Sn  Sn3  1  0.91520700  0.85719100  0.92517100  1
  Hg  Hg4  1  0.55275100  0.24530400  0.88378400  1
  Hg  Hg5  1  0.94724900  0.24530400  0.38378400  1
  Hg  Hg6  1  0.44724900  0.75469600  0.11621600  1
  Hg  Hg7  1  0.05275100  0.75469600  0.61621600  1
  Hg  Hg8  1  0.81662800  0.41331600  0.62390600  1
  Hg  Hg9  1  0.68337200  0.41331600  0.12390600  1
  Hg  Hg10  1  0.18337200  0.58668400  0.37609400  1
  Hg  Hg11  1  0.31662800  0.58668400  0.87609400  1
  S  S12  1  0.68272000  0.15274000  0.76560700  1
  S  S13  1  0.81728000  0.15274000  0.26560700  1
  S  S14  1  0.31728000  0.84726000  0.23439300  1
  S  S15  1  0.18272000  0.84726000  0.73439300  1
  S  S16  1  0.41343500  0.30480300  0.01825900  1
  S  S17  1  0.08656500  0.30480300  0.51825900  1
  S  S18  1  0.58656500  0.69519700  0.98174100  1
  S  S19  1  0.91343500  0.69519700  0.48174100  1
  Br  Br20  1  0.60113600  0.43231200  0.38666300  1
  Br  Br21  1  0.89886400  0.43231200  0.88666300  1
  Br  Br22  1  0.39886400  0.56768800  0.61333700  1
  Br  Br23  1  0.10113600  0.56768800  0.11333700  1
  Br  Br24  1  0.32599200  0.09743900  0.38273600  1
  Br  Br25  1  0.17400800  0.09743900  0.88273600  1
  Br  Br26  1  0.67400800  0.90256100  0.61726400  1
  Br  Br27  1  0.82599200  0.90256100  0.11726400  1
