# generated using pymatgen
data_BaH2CSNClO
_symmetry_space_group_name_H-M   'P 1'
_cell_length_a   4.82010800
_cell_length_b   5.91767800
_cell_length_c   20.41847500
_cell_angle_alpha   90.00000000
_cell_angle_beta   90.00000000
_cell_angle_gamma   90.00000000
_symmetry_Int_Tables_number   1
_chemical_formula_structural   BaH2CSNClO
_chemical_formula_sum   'Ba4 H8 C4 S4 N4 Cl4 O4'
_cell_volume   582.41345829
_cell_formula_units_Z   4
loop_
 _symmetry_equiv_pos_site_id
 _symmetry_equiv_pos_as_xyz
  1  'x, y, z'
loop_
 _atom_site_type_symbol
 _atom_site_label
 _atom_site_symmetry_multiplicity
 _atom_site_fract_x
 _atom_site_fract_y
 _atom_site_fract_z
 _atom_site_occupancy
  Ba  Ba0  1  0.25000000  0.76182600  0.08259200  1
  Ba  Ba1  1  0.25000000  0.26182600  0.41740800  1
  Ba  Ba2  1  0.75000000  0.23817400  0.91740800  1
  Ba  Ba3  1  0.75000000  0.73817400  0.58259200  1
  H  H4  1  0.08765400  0.88844900  0.24325500  1
  H  H5  1  0.41234600  0.38844900  0.25674500  1
  H  H6  1  0.58765400  0.11155100  0.75674500  1
  H  H7  1  0.91234600  0.61155100  0.74325500  1
  H  H8  1  0.91234600  0.11155100  0.75674500  1
  H  H9  1  0.58765400  0.61155100  0.74325500  1
  H  H10  1  0.41234600  0.88844900  0.24325500  1
  H  H11  1  0.08765400  0.38844900  0.25674500  1
  C  C12  1  0.75000000  0.19464300  0.14438800  1
  C  C13  1  0.75000000  0.69464300  0.35561200  1
  C  C14  1  0.25000000  0.80535700  0.85561200  1
  C  C15  1  0.25000000  0.30535700  0.64438800  1
  S  S16  1  0.75000000  0.45838700  0.16883800  1
  S  S17  1  0.75000000  0.95838700  0.33116200  1
  S  S18  1  0.25000000  0.54161300  0.83116200  1
  S  S19  1  0.25000000  0.04161300  0.66883800  1
  N  N20  1  0.75000000  0.00331800  0.12751300  1
  N  N21  1  0.75000000  0.50331800  0.37248700  1
  N  N22  1  0.25000000  0.99668200  0.87248700  1
  N  N23  1  0.25000000  0.49668200  0.62751300  1
  Cl  Cl24  1  0.25000000  0.26208700  0.02108400  1
  Cl  Cl25  1  0.25000000  0.76208700  0.47891600  1
  Cl  Cl26  1  0.75000000  0.73791300  0.97891600  1
  Cl  Cl27  1  0.75000000  0.23791300  0.52108400  1
  O  O28  1  0.25000000  0.85361000  0.21596000  1
  O  O29  1  0.25000000  0.35361000  0.28404000  1
  O  O30  1  0.75000000  0.14639000  0.78404000  1
  O  O31  1  0.75000000  0.64639000  0.71596000  1
