# generated using pymatgen
data_KCaF3
_symmetry_space_group_name_H-M   'P 1'
_cell_length_a   8.87409900
_cell_length_b   6.22474300
_cell_length_c   6.27264595
_cell_angle_alpha   89.60780972
_cell_angle_beta   90.00000000
_cell_angle_gamma   90.00000000
_symmetry_Int_Tables_number   1
_chemical_formula_structural   KCaF3
_chemical_formula_sum   'K4 Ca4 F12'
_cell_volume   346.48648213
_cell_formula_units_Z   4
loop_
 _symmetry_equiv_pos_site_id
 _symmetry_equiv_pos_as_xyz
  1  'x, y, z'
loop_
 _atom_site_type_symbol
 _atom_site_label
 _atom_site_symmetry_multiplicity
 _atom_site_fract_x
 _atom_site_fract_y
 _atom_site_fract_z
 _atom_site_occupancy
  K  K0  1  0.25000000  0.00040800  0.53024600  1
  K  K1  1  0.75000000  0.99959200  0.46975400  1
  K  K2  1  0.25000000  0.50265300  0.02453200  1
  K  K3  1  0.75000000  0.49734700  0.97546800  1
  Ca  Ca4  1  0.50000000  0.00000000  0.00000000  1
  Ca  Ca5  1  0.00000000  0.00000000  0.00000000  1
  Ca  Ca6  1  0.50000000  0.50000000  0.50000000  1
  Ca  Ca7  1  0.00000000  0.50000000  0.50000000  1
  F  F8  1  0.25000000  0.06473800  0.96194200  1
  F  F9  1  0.75000000  0.93526200  0.03805800  1
  F  F10  1  0.25000000  0.43103800  0.50334300  1
  F  F11  1  0.75000000  0.56896200  0.49665700  1
  F  F12  1  0.52321700  0.30024100  0.20077800  1
  F  F13  1  0.47678300  0.69975900  0.79922200  1
  F  F14  1  0.02321700  0.69975900  0.79922200  1
  F  F15  1  0.97678300  0.30024100  0.20077800  1
  F  F16  1  0.45758000  0.79761000  0.29727600  1
  F  F17  1  0.54242000  0.20239000  0.70272400  1
  F  F18  1  0.95758000  0.20239000  0.70272400  1
  F  F19  1  0.04242000  0.79761000  0.29727600  1
