# generated using pymatgen
data_Rb2MgH4
_symmetry_space_group_name_H-M   'P 1'
_cell_length_a   6.39784100
_cell_length_b   8.26712200
_cell_length_c   11.23693300
_cell_angle_alpha   90.00000000
_cell_angle_beta   90.00000000
_cell_angle_gamma   90.00000000
_symmetry_Int_Tables_number   1
_chemical_formula_structural   Rb2MgH4
_chemical_formula_sum   'Rb8 Mg4 H16'
_cell_volume   594.34084968
_cell_formula_units_Z   4
loop_
 _symmetry_equiv_pos_site_id
 _symmetry_equiv_pos_as_xyz
  1  'x, y, z'
loop_
 _atom_site_type_symbol
 _atom_site_label
 _atom_site_symmetry_multiplicity
 _atom_site_fract_x
 _atom_site_fract_y
 _atom_site_fract_z
 _atom_site_occupancy
  Rb  Rb0  1  0.25000000  0.66259400  0.08490000  1
  Rb  Rb1  1  0.25000000  0.16259400  0.41510000  1
  Rb  Rb2  1  0.75000000  0.33740600  0.91510000  1
  Rb  Rb3  1  0.75000000  0.83740600  0.58490000  1
  Rb  Rb4  1  0.25000000  0.99315100  0.80013600  1
  Rb  Rb5  1  0.25000000  0.49315100  0.69986400  1
  Rb  Rb6  1  0.75000000  0.00684900  0.19986400  1
  Rb  Rb7  1  0.75000000  0.50684900  0.30013600  1
  Mg  Mg8  1  0.25000000  0.72727700  0.41972900  1
  Mg  Mg9  1  0.25000000  0.22727700  0.08027100  1
  Mg  Mg10  1  0.75000000  0.27272300  0.58027100  1
  Mg  Mg11  1  0.75000000  0.77272300  0.91972900  1
  H  H12  1  0.01250700  0.80471300  0.34467700  1
  H  H13  1  0.48749300  0.30471300  0.15532300  1
  H  H14  1  0.51250700  0.19528700  0.65532300  1
  H  H15  1  0.98749300  0.69528700  0.84467700  1
  H  H16  1  0.98749300  0.19528700  0.65532300  1
  H  H17  1  0.51250700  0.69528700  0.84467700  1
  H  H18  1  0.48749300  0.80471300  0.34467700  1
  H  H19  1  0.01250700  0.30471300  0.15532300  1
  H  H20  1  0.25000000  0.50475500  0.42088500  1
  H  H21  1  0.25000000  0.00475500  0.07911500  1
  H  H22  1  0.75000000  0.49524500  0.57911500  1
  H  H23  1  0.75000000  0.99524500  0.92088500  1
  H  H24  1  0.25000000  0.31490300  0.92768400  1
  H  H25  1  0.25000000  0.81490300  0.57231600  1
  H  H26  1  0.75000000  0.68509700  0.07231600  1
  H  H27  1  0.75000000  0.18509700  0.42768400  1
