# generated using pymatgen
data_LiHS
_symmetry_space_group_name_H-M   'P 1'
_cell_length_a   3.94442929
_cell_length_b   3.94442929
_cell_length_c   6.17469000
_cell_angle_alpha   90.00000000
_cell_angle_beta   90.00000000
_cell_angle_gamma   91.11781773
_symmetry_Int_Tables_number   1
_chemical_formula_structural   LiHS
_chemical_formula_sum   'Li2 H2 S2'
_cell_volume   96.05077040
_cell_formula_units_Z   2
loop_
 _symmetry_equiv_pos_site_id
 _symmetry_equiv_pos_as_xyz
  1  'x, y, z'
loop_
 _atom_site_type_symbol
 _atom_site_label
 _atom_site_symmetry_multiplicity
 _atom_site_fract_x
 _atom_site_fract_y
 _atom_site_fract_z
 _atom_site_occupancy
  Li  Li0  1  0.50157900  0.50157900  0.00000000  1
  Li  Li1  1  0.50157900  0.50157900  0.50000000  1
  H  H2  1  0.13329400  0.98381500  0.75000000  1
  H  H3  1  0.98381500  0.13329400  0.25000000  1
  S  S4  1  0.99879000  0.47494400  0.25000000  1
  S  S5  1  0.47494400  0.99879000  0.75000000  1
