# generated using pymatgen
data_Eu2MgH6
_symmetry_space_group_name_H-M   'P 1'
_cell_length_a   5.65983981
_cell_length_b   5.65983981
_cell_length_c   4.21887100
_cell_angle_alpha   90.00000000
_cell_angle_beta   90.00000000
_cell_angle_gamma   119.99999776
_symmetry_Int_Tables_number   1
_chemical_formula_structural   Eu2MgH6
_chemical_formula_sum   'Eu2 Mg1 H6'
_cell_volume   117.04023000
_cell_formula_units_Z   1
loop_
 _symmetry_equiv_pos_site_id
 _symmetry_equiv_pos_as_xyz
  1  'x, y, z'
loop_
 _atom_site_type_symbol
 _atom_site_label
 _atom_site_symmetry_multiplicity
 _atom_site_fract_x
 _atom_site_fract_y
 _atom_site_fract_z
 _atom_site_occupancy
  Eu  Eu0  1  0.66666700  0.33333300  0.74080400  1
  Eu  Eu1  1  0.33333300  0.66666700  0.25919600  1
  Mg  Mg2  1  0.00000000  0.00000000  0.00000000  1
  H  H3  1  0.64261800  0.82130900  0.76040000  1
  H  H4  1  0.17869100  0.35738200  0.76040000  1
  H  H5  1  0.17869100  0.82130900  0.76040000  1
  H  H6  1  0.35738200  0.17869100  0.23960000  1
  H  H7  1  0.82130900  0.64261800  0.23960000  1
  H  H8  1  0.82130900  0.17869100  0.23960000  1
