# generated using pymatgen
data_CaZrGeO5
_symmetry_space_group_name_H-M   'P 1'
_cell_length_a   5.67178400
_cell_length_b   5.81924391
_cell_length_c   7.54473945
_cell_angle_alpha   104.12938375
_cell_angle_beta   102.02406468
_cell_angle_gamma   107.20265642
_symmetry_Int_Tables_number   1
_chemical_formula_structural   CaZrGeO5
_chemical_formula_sum   'Ca2 Zr2 Ge2 O10'
_cell_volume   219.85061527
_cell_formula_units_Z   2
loop_
 _symmetry_equiv_pos_site_id
 _symmetry_equiv_pos_as_xyz
  1  'x, y, z'
loop_
 _atom_site_type_symbol
 _atom_site_label
 _atom_site_symmetry_multiplicity
 _atom_site_fract_x
 _atom_site_fract_y
 _atom_site_fract_z
 _atom_site_occupancy
  Ca  Ca0  1  0.84240300  0.17673300  0.22182400  1
  Ca  Ca1  1  0.15759700  0.82326700  0.77817600  1
  Zr  Zr2  1  0.50000000  0.50000000  0.50000000  1
  Zr  Zr3  1  0.50000000  0.50000000  0.00000000  1
  Ge  Ge4  1  0.81629700  0.17549000  0.74947500  1
  Ge  Ge5  1  0.18370300  0.82451000  0.25052500  1
  O  O6  1  0.40185600  0.57582500  0.74970700  1
  O  O7  1  0.59814400  0.42417500  0.25029300  1
  O  O8  1  0.10694900  0.24628900  0.93415200  1
  O  O9  1  0.89305100  0.75371100  0.06584800  1
  O  O10  1  0.77927500  0.87663900  0.59568700  1
  O  O11  1  0.22072500  0.12336100  0.40431300  1
  O  O12  1  0.18504400  0.60669500  0.37803000  1
  O  O13  1  0.81495600  0.39330500  0.62197000  1
  O  O14  1  0.42081800  0.83457200  0.12711900  1
  O  O15  1  0.57918200  0.16542800  0.87288100  1
