# generated using pymatgen
data_Ba3La2(BO3)4
_symmetry_space_group_name_H-M   'P 1'
_cell_length_a   7.94699400
_cell_length_b   9.06327000
_cell_length_c   16.87350900
_cell_angle_alpha   90.00000000
_cell_angle_beta   90.00000000
_cell_angle_gamma   90.00000000
_symmetry_Int_Tables_number   1
_chemical_formula_structural   Ba3La2(BO3)4
_chemical_formula_sum   'Ba12 La8 B16 O48'
_cell_volume   1215.32717984
_cell_formula_units_Z   4
loop_
 _symmetry_equiv_pos_site_id
 _symmetry_equiv_pos_as_xyz
  1  'x, y, z'
loop_
 _atom_site_type_symbol
 _atom_site_label
 _atom_site_symmetry_multiplicity
 _atom_site_fract_x
 _atom_site_fract_y
 _atom_site_fract_z
 _atom_site_occupancy
  Ba  Ba0  1  0.32351300  0.46761200  0.75000000  1
  Ba  Ba1  1  0.82351300  0.03238800  0.75000000  1
  Ba  Ba2  1  0.17648700  0.96761200  0.25000000  1
  Ba  Ba3  1  0.67648700  0.53238800  0.25000000  1
  Ba  Ba4  1  0.67433000  0.65637800  0.87610500  1
  Ba  Ba5  1  0.17433000  0.84362200  0.62389500  1
  Ba  Ba6  1  0.82567000  0.15637800  0.12389500  1
  Ba  Ba7  1  0.32567000  0.34362200  0.37610500  1
  Ba  Ba8  1  0.32567000  0.34362200  0.12389500  1
  Ba  Ba9  1  0.82567000  0.15637800  0.37610500  1
  Ba  Ba10  1  0.67433000  0.65637800  0.62389500  1
  Ba  Ba11  1  0.17433000  0.84362200  0.87610500  1
  La  La12  1  0.97018800  0.67036500  0.41540100  1
  La  La13  1  0.47018800  0.82963500  0.08459900  1
  La  La14  1  0.52981200  0.17036500  0.58459900  1
  La  La15  1  0.02981200  0.32963500  0.91540100  1
  La  La16  1  0.02981200  0.32963500  0.58459900  1
  La  La17  1  0.52981200  0.17036500  0.91540100  1
  La  La18  1  0.47018800  0.82963500  0.41540100  1
  La  La19  1  0.97018800  0.67036500  0.08459900  1
  B  B20  1  0.81814900  0.95160200  0.53617100  1
  B  B21  1  0.47815900  0.89220500  0.75000000  1
  B  B22  1  0.97815900  0.60779500  0.75000000  1
  B  B23  1  0.02184100  0.39220500  0.25000000  1
  B  B24  1  0.52184100  0.10779500  0.25000000  1
  B  B25  1  0.21849400  0.13936100  0.75000000  1
  B  B26  1  0.71849400  0.36063900  0.75000000  1
  B  B27  1  0.28150600  0.63936100  0.25000000  1
  B  B28  1  0.78150600  0.86063900  0.25000000  1
  B  B29  1  0.81814900  0.95160200  0.96382900  1
  B  B30  1  0.31814900  0.54839800  0.53617100  1
  B  B31  1  0.68185100  0.45160200  0.03617100  1
  B  B32  1  0.18185100  0.04839800  0.46382900  1
  B  B33  1  0.18185100  0.04839800  0.03617100  1
  B  B34  1  0.68185100  0.45160200  0.46382900  1
  B  B35  1  0.31814900  0.54839800  0.96382900  1
  O  O36  1  0.60944300  0.31186000  0.46651700  1
  O  O37  1  0.17250600  0.52217400  0.00838100  1
  O  O38  1  0.82749400  0.47782600  0.50838100  1
  O  O39  1  0.32749400  0.02217400  0.99161900  1
  O  O40  1  0.39941200  0.75591200  0.75000000  1
  O  O41  1  0.62333300  0.56384300  0.08434800  1
  O  O42  1  0.12333300  0.93615700  0.41565200  1
  O  O43  1  0.87666700  0.06384300  0.91565200  1
  O  O44  1  0.37666700  0.43615700  0.58434800  1
  O  O45  1  0.37666700  0.43615700  0.91565200  1
  O  O46  1  0.87666700  0.06384300  0.58434800  1
  O  O47  1  0.12333300  0.93615700  0.08434800  1
  O  O48  1  0.62333300  0.56384300  0.41565200  1
  O  O49  1  0.85195500  0.99747700  0.25000000  1
  O  O50  1  0.35195500  0.50252300  0.25000000  1
  O  O51  1  0.64804500  0.49747700  0.75000000  1
  O  O52  1  0.14804500  0.00252300  0.75000000  1
  O  O53  1  0.60058800  0.24408800  0.25000000  1
  O  O54  1  0.10058800  0.25591200  0.25000000  1
  O  O55  1  0.89941200  0.74408800  0.75000000  1
  O  O56  1  0.97400800  0.45726000  0.17773300  1
  O  O57  1  0.47400800  0.04274000  0.32226700  1
  O  O58  1  0.52599200  0.95726000  0.82226700  1
  O  O59  1  0.02599200  0.54274000  0.67773300  1
  O  O60  1  0.02599200  0.54274000  0.82226700  1
  O  O61  1  0.52599200  0.95726000  0.67773300  1
  O  O62  1  0.47400800  0.04274000  0.17773300  1
  O  O63  1  0.97400800  0.45726000  0.32226700  1
  O  O64  1  0.89055700  0.81186000  0.53348300  1
  O  O65  1  0.39055700  0.68814000  0.96651700  1
  O  O66  1  0.67250600  0.97782600  0.49161900  1
  O  O67  1  0.10944300  0.18814000  0.03348300  1
  O  O68  1  0.10944300  0.18814000  0.46651700  1
  O  O69  1  0.60944300  0.31186000  0.03348300  1
  O  O70  1  0.39055700  0.68814000  0.53348300  1
  O  O71  1  0.89055700  0.81186000  0.96651700  1
  O  O72  1  0.75175400  0.78906200  0.17744900  1
  O  O73  1  0.25175400  0.71093800  0.32255100  1
  O  O74  1  0.74824600  0.28906200  0.82255100  1
  O  O75  1  0.24824600  0.21093800  0.67744900  1
  O  O76  1  0.24824600  0.21093800  0.82255100  1
  O  O77  1  0.74824600  0.28906200  0.67744900  1
  O  O78  1  0.25175400  0.71093800  0.17744900  1
  O  O79  1  0.75175400  0.78906200  0.32255100  1
  O  O80  1  0.67250600  0.97782600  0.00838100  1
  O  O81  1  0.17250600  0.52217400  0.49161900  1
  O  O82  1  0.82749400  0.47782600  0.99161900  1
  O  O83  1  0.32749400  0.02217400  0.50838100  1
