# generated using pymatgen
data_Cs2Mo2O11
_symmetry_space_group_name_H-M   'P 1'
_cell_length_a   7.92729100
_cell_length_b   8.91744983
_cell_length_c   9.08827279
_cell_angle_alpha   115.04960123
_cell_angle_beta   111.84874518
_cell_angle_gamma   81.33299718
_symmetry_Int_Tables_number   1
_chemical_formula_structural   Cs2Mo2O11
_chemical_formula_sum   'Cs4 Mo4 O22'
_cell_volume   540.20648926
_cell_formula_units_Z   2
loop_
 _symmetry_equiv_pos_site_id
 _symmetry_equiv_pos_as_xyz
  1  'x, y, z'
loop_
 _atom_site_type_symbol
 _atom_site_label
 _atom_site_symmetry_multiplicity
 _atom_site_fract_x
 _atom_site_fract_y
 _atom_site_fract_z
 _atom_site_occupancy
  Cs  Cs0  1  0.27377400  0.57770500  0.84563100  1
  Cs  Cs1  1  0.68263700  0.86470500  0.72689200  1
  Cs  Cs2  1  0.31736300  0.13529500  0.27310800  1
  Cs  Cs3  1  0.72622600  0.42229500  0.15436900  1
  Mo  Mo4  1  0.78950500  0.37550400  0.68617800  1
  Mo  Mo5  1  0.21049500  0.62449600  0.31382200  1
  Mo  Mo6  1  0.83670400  0.91946300  0.26289400  1
  Mo  Mo7  1  0.16329600  0.08053700  0.73710600  1
  O  O8  1  0.62312200  0.83860100  0.12141400  1
  O  O9  1  0.55444600  0.31381200  0.67773800  1
  O  O10  1  0.65612000  0.43195700  0.48422600  1
  O  O11  1  0.04464900  0.06560100  0.88603700  1
  O  O12  1  0.87391200  0.09325400  0.19649500  1
  O  O13  1  0.17168700  0.43232300  0.14384600  1
  O  O14  1  0.96385500  0.71704500  0.25394300  1
  O  O15  1  0.44555400  0.68618800  0.32226200  1
  O  O16  1  0.03614500  0.28295500  0.74605700  1
  O  O17  1  0.84419300  0.96113800  0.50447300  1
  O  O18  1  0.75463000  0.09651400  0.45148600  1
  O  O19  1  0.14649700  0.58094100  0.48433400  1
  O  O20  1  0.34388000  0.56804300  0.51577400  1
  O  O21  1  0.15580700  0.03886200  0.49552700  1
  O  O22  1  0.37687800  0.16139900  0.87858600  1
  O  O23  1  0.95535100  0.93439900  0.11396300  1
  O  O24  1  0.85350300  0.41905900  0.51566600  1
  O  O25  1  0.24537000  0.90348600  0.54851400  1
  O  O26  1  0.82831300  0.56767700  0.85615400  1
  O  O27  1  0.70876300  0.23797100  0.77341000  1
  O  O28  1  0.12608800  0.90674600  0.80350500  1
  O  O29  1  0.29123700  0.76202900  0.22659000  1
