# generated using pymatgen
data_Nb3(BiO3)5
_symmetry_space_group_name_H-M   'P 1'
_cell_length_a   5.52565900
_cell_length_b   5.59827800
_cell_length_c   22.12210000
_cell_angle_alpha   90.00000000
_cell_angle_beta   90.00000000
_cell_angle_gamma   90.00000000
_symmetry_Int_Tables_number   1
_chemical_formula_structural   Nb3(BiO3)5
_chemical_formula_sum   'Nb6 Bi10 O30'
_cell_volume   684.32891753
_cell_formula_units_Z   2
loop_
 _symmetry_equiv_pos_site_id
 _symmetry_equiv_pos_as_xyz
  1  'x, y, z'
loop_
 _atom_site_type_symbol
 _atom_site_label
 _atom_site_symmetry_multiplicity
 _atom_site_fract_x
 _atom_site_fract_y
 _atom_site_fract_z
 _atom_site_occupancy
  Nb  Nb0  1  0.00000000  0.46114500  0.50000000  1
  Nb  Nb1  1  0.99816900  0.97907200  0.10847700  1
  Nb  Nb2  1  0.00183100  0.97907200  0.89152300  1
  Nb  Nb3  1  0.50000000  0.96114500  0.50000000  1
  Nb  Nb4  1  0.49816900  0.47907200  0.89152300  1
  Nb  Nb5  1  0.50183100  0.47907200  0.10847700  1
  Bi  Bi6  1  0.98808600  0.48126300  0.25861300  1
  Bi  Bi7  1  0.02474400  0.02182100  0.37613800  1
  Bi  Bi8  1  0.97525600  0.02182100  0.62386200  1
  Bi  Bi9  1  0.51191400  0.98126300  0.25861300  1
  Bi  Bi10  1  0.47525600  0.52182100  0.37613800  1
  Bi  Bi11  1  0.01191400  0.48126300  0.74138700  1
  Bi  Bi12  1  0.48808600  0.98126300  0.74138700  1
  Bi  Bi13  1  0.52474400  0.52182100  0.62386200  1
  Bi  Bi14  1  0.50000000  0.05557900  0.00000000  1
  Bi  Bi15  1  0.00000000  0.55557900  0.00000000  1
  O  O16  1  0.25515400  0.66672600  0.52243100  1
  O  O17  1  0.25780100  0.72692500  0.69055800  1
  O  O18  1  0.29333600  0.16958600  0.90979500  1
  O  O19  1  0.00000000  0.94085700  0.00000000  1
  O  O20  1  0.39454000  0.89416100  0.41426600  1
  O  O21  1  0.70666400  0.16958600  0.09020500  1
  O  O22  1  0.22991300  0.23052400  0.08883300  1
  O  O23  1  0.72991300  0.73052400  0.91116700  1
  O  O24  1  0.24219900  0.22692500  0.69055800  1
  O  O25  1  0.10546000  0.39416100  0.41426600  1
  O  O26  1  0.60546000  0.89416100  0.58573400  1
  O  O27  1  0.99347600  0.97284000  0.19024200  1
  O  O28  1  0.00652400  0.97284000  0.80975800  1
  O  O29  1  0.89454000  0.39416100  0.58573400  1
  O  O30  1  0.74484600  0.66672600  0.47756900  1
  O  O31  1  0.74219900  0.72692500  0.30944200  1
  O  O32  1  0.27008700  0.73052400  0.08883300  1
  O  O33  1  0.75780100  0.22692500  0.30944200  1
  O  O34  1  0.49347600  0.47284000  0.80975800  1
  O  O35  1  0.75567600  0.72336600  0.69233700  1
  O  O36  1  0.20666400  0.66958600  0.90979500  1
  O  O37  1  0.24432400  0.72336600  0.30766300  1
  O  O38  1  0.50000000  0.44085700  0.00000000  1
  O  O39  1  0.74432400  0.22336600  0.69233700  1
  O  O40  1  0.75515400  0.16672600  0.47756900  1
  O  O41  1  0.77008700  0.23052400  0.91116700  1
  O  O42  1  0.25567600  0.22336600  0.30766300  1
  O  O43  1  0.24484600  0.16672600  0.52243100  1
  O  O44  1  0.50652400  0.47284000  0.19024200  1
  O  O45  1  0.79333600  0.66958600  0.09020500  1
