# generated using pymatgen
data_CdI2
_symmetry_space_group_name_H-M   'P 1'
_cell_length_a   4.34672948
_cell_length_b   4.34672948
_cell_length_c   51.39335600
_cell_angle_alpha   90.00000000
_cell_angle_beta   90.00000000
_cell_angle_gamma   119.99999205
_symmetry_Int_Tables_number   1
_chemical_formula_structural   CdI2
_chemical_formula_sum   'Cd7 I14'
_cell_volume   840.93585388
_cell_formula_units_Z   7
loop_
 _symmetry_equiv_pos_site_id
 _symmetry_equiv_pos_as_xyz
  1  'x, y, z'
loop_
 _atom_site_type_symbol
 _atom_site_label
 _atom_site_symmetry_multiplicity
 _atom_site_fract_x
 _atom_site_fract_y
 _atom_site_fract_z
 _atom_site_occupancy
  Cd  Cd0  1  0.00000000  0.00000000  0.17859400  1
  Cd  Cd1  1  0.33333300  0.66666700  0.03569200  1
  Cd  Cd2  1  0.33333300  0.66666700  0.89287300  1
  Cd  Cd3  1  0.00000000  0.00000000  0.74999100  1
  Cd  Cd4  1  0.33333300  0.66666700  0.32141500  1
  Cd  Cd5  1  0.33333300  0.66666700  0.46428400  1
  Cd  Cd6  1  0.00000000  0.00000000  0.60713500  1
  I  I7  1  0.66666700  0.33333300  0.21218500  1
  I  I8  1  0.00000000  0.00000000  0.43069000  1
  I  I9  1  0.33333300  0.66666700  0.57357100  1
  I  I10  1  0.33333300  0.66666700  0.71641400  1
  I  I11  1  0.66666700  0.33333300  0.92644500  1
  I  I12  1  0.66666700  0.33333300  0.35499500  1
  I  I13  1  0.00000000  0.00000000  0.85928900  1
  I  I14  1  0.66666700  0.33333300  0.64072300  1
  I  I15  1  0.33333300  0.66666700  0.14500900  1
  I  I16  1  0.66666700  0.33333300  0.49789200  1
  I  I17  1  0.66666700  0.33333300  0.78357200  1
  I  I18  1  0.66666700  0.33333300  0.06927900  1
  I  I19  1  0.00000000  0.00000000  0.00213500  1
  I  I20  1  0.00000000  0.00000000  0.28781900  1
