# generated using pymatgen
data_Na2Al2S3(Cl4O3)2
_symmetry_space_group_name_H-M   'P 1'
_cell_length_a   10.16800900
_cell_length_b   6.44801700
_cell_length_c   32.18966760
_cell_angle_alpha   82.08755965
_cell_angle_beta   90.00000000
_cell_angle_gamma   90.00000000
_symmetry_Int_Tables_number   1
_chemical_formula_structural   Na2Al2S3(Cl4O3)2
_chemical_formula_sum   'Na8 Al8 S12 Cl32 O24'
_cell_volume   2090.37461029
_cell_formula_units_Z   4
loop_
 _symmetry_equiv_pos_site_id
 _symmetry_equiv_pos_as_xyz
  1  'x, y, z'
loop_
 _atom_site_type_symbol
 _atom_site_label
 _atom_site_symmetry_multiplicity
 _atom_site_fract_x
 _atom_site_fract_y
 _atom_site_fract_z
 _atom_site_occupancy
  Na  Na0  1  0.65997500  0.14576300  0.55897500  1
  Na  Na1  1  0.84002500  0.14576300  0.05897500  1
  Na  Na2  1  0.01174100  0.32181800  0.29778400  1
  Na  Na3  1  0.98825900  0.67818200  0.70221600  1
  Na  Na4  1  0.51174100  0.67818200  0.20221600  1
  Na  Na5  1  0.48825900  0.32181800  0.79778400  1
  Na  Na6  1  0.15997500  0.85423700  0.94102500  1
  Na  Na7  1  0.34002500  0.85423700  0.44102500  1
  Al  Al8  1  0.78820400  0.19835800  0.19740900  1
  Al  Al9  1  0.71179600  0.19835800  0.69740900  1
  Al  Al10  1  0.22880000  0.31507100  0.03588600  1
  Al  Al11  1  0.28820400  0.80164200  0.30259100  1
  Al  Al12  1  0.77120000  0.68492900  0.96411400  1
  Al  Al13  1  0.21179600  0.80164200  0.80259100  1
  Al  Al14  1  0.72880000  0.68492900  0.46411400  1
  Al  Al15  1  0.27120000  0.31507100  0.53588600  1
  S  S16  1  0.02638800  0.17524400  0.41725100  1
  S  S17  1  0.03746300  0.76435900  0.13379000  1
  S  S18  1  0.82216600  0.80631900  0.31505000  1
  S  S19  1  0.46253700  0.76435900  0.63379000  1
  S  S20  1  0.97361200  0.82475600  0.58274900  1
  S  S21  1  0.52638800  0.82475600  0.08274900  1
  S  S22  1  0.47361200  0.17524400  0.91725100  1
  S  S23  1  0.96253700  0.23564100  0.86621000  1
  S  S24  1  0.67783400  0.80631900  0.81505000  1
  S  S25  1  0.17783400  0.19368100  0.68495000  1
  S  S26  1  0.53746300  0.23564100  0.36621000  1
  S  S27  1  0.32216600  0.19368100  0.18495000  1
  Cl  Cl28  1  0.72985700  0.33690200  0.13529900  1
  Cl  Cl29  1  0.99066700  0.28035000  0.20868600  1
  Cl  Cl30  1  0.22503400  0.14109100  0.79536800  1
  Cl  Cl31  1  0.37824500  0.29337000  0.08410000  1
  Cl  Cl32  1  0.12175500  0.29337000  0.58410000  1
  Cl  Cl33  1  0.31887100  0.00480200  0.52238000  1
  Cl  Cl34  1  0.80584200  0.49178300  0.51897500  1
  Cl  Cl35  1  0.33212800  0.68780700  0.75546000  1
  Cl  Cl36  1  0.44860600  0.44786700  0.55878700  1
  Cl  Cl37  1  0.19415800  0.50821700  0.48102500  1
  Cl  Cl38  1  0.62175500  0.70663000  0.91590000  1
  Cl  Cl39  1  0.16787200  0.68780700  0.25546000  1
  Cl  Cl40  1  0.81887100  0.99519800  0.97762000  1
  Cl  Cl41  1  0.68112900  0.99519800  0.47762000  1
  Cl  Cl42  1  0.27014300  0.66309800  0.86470100  1
  Cl  Cl43  1  0.94860600  0.55213300  0.94121300  1
  Cl  Cl44  1  0.87824500  0.70663000  0.41590000  1
  Cl  Cl45  1  0.66787200  0.31219300  0.24454000  1
  Cl  Cl46  1  0.00933300  0.71965000  0.79131400  1
  Cl  Cl47  1  0.72503400  0.85890900  0.70463200  1
  Cl  Cl48  1  0.18112900  0.00480200  0.02238000  1
  Cl  Cl49  1  0.22985700  0.66309800  0.36470100  1
  Cl  Cl50  1  0.05139400  0.44786700  0.05878700  1
  Cl  Cl51  1  0.77014300  0.33690200  0.63529900  1
  Cl  Cl52  1  0.30584200  0.50821700  0.98102500  1
  Cl  Cl53  1  0.27496600  0.14109100  0.29536800  1
  Cl  Cl54  1  0.69415800  0.49178300  0.01897500  1
  Cl  Cl55  1  0.77496600  0.85890900  0.20463200  1
  Cl  Cl56  1  0.49066700  0.71965000  0.29131400  1
  Cl  Cl57  1  0.55139400  0.55213300  0.44121300  1
  Cl  Cl58  1  0.50933300  0.28035000  0.70868600  1
  Cl  Cl59  1  0.83212800  0.31219300  0.74454000  1
  O  O60  1  0.33081500  0.83806400  0.64080300  1
  O  O61  1  0.50872200  0.75592600  0.12723900  1
  O  O62  1  0.41933400  0.02760700  0.19205100  1
  O  O63  1  0.13360500  0.40387500  0.68901900  1
  O  O64  1  0.86639500  0.59612500  0.31098100  1
  O  O65  1  0.58066600  0.97239300  0.80794900  1
  O  O66  1  0.64368800  0.94453100  0.07032000  1
  O  O67  1  0.49127800  0.24407400  0.87276100  1
  O  O68  1  0.04908300  0.09525800  0.89278100  1
  O  O69  1  0.91933400  0.97239300  0.30794900  1
  O  O70  1  0.35631200  0.05546900  0.92968000  1
  O  O71  1  0.36639500  0.40387500  0.18901900  1
  O  O72  1  0.99127800  0.75592600  0.62723900  1
  O  O73  1  0.54908300  0.90474200  0.60721900  1
  O  O74  1  0.08066600  0.02760700  0.69205100  1
  O  O75  1  0.63360500  0.59612500  0.81098100  1
  O  O76  1  0.16918500  0.83806400  0.14080300  1
  O  O77  1  0.66918500  0.16193600  0.35919700  1
  O  O78  1  0.45091700  0.09525800  0.39278100  1
  O  O79  1  0.14368800  0.05546900  0.42968000  1
  O  O80  1  0.95091700  0.90474200  0.10721900  1
  O  O81  1  0.83081500  0.16193600  0.85919700  1
  O  O82  1  0.00872200  0.24407400  0.37276100  1
  O  O83  1  0.85631200  0.94453100  0.57032000  1
