# generated using pymatgen
data_Na2ZnP2O7
_symmetry_space_group_name_H-M   'P 1'
_cell_length_a   7.83377800
_cell_length_b   7.83377800
_cell_length_c   10.42038200
_cell_angle_alpha   90.00000000
_cell_angle_beta   90.00000000
_cell_angle_gamma   90.00000000
_symmetry_Int_Tables_number   1
_chemical_formula_structural   Na2ZnP2O7
_chemical_formula_sum   'Na8 Zn4 P8 O28'
_cell_volume   639.47881279
_cell_formula_units_Z   4
loop_
 _symmetry_equiv_pos_site_id
 _symmetry_equiv_pos_as_xyz
  1  'x, y, z'
loop_
 _atom_site_type_symbol
 _atom_site_label
 _atom_site_symmetry_multiplicity
 _atom_site_fract_x
 _atom_site_fract_y
 _atom_site_fract_z
 _atom_site_occupancy
  Na  Na0  1  0.80607800  0.19392200  0.50000000  1
  Na  Na1  1  0.64592900  0.64592900  0.50000000  1
  Na  Na2  1  0.14592900  0.85407100  0.00000000  1
  Na  Na3  1  0.19392200  0.80607800  0.50000000  1
  Na  Na4  1  0.85407100  0.14592900  0.00000000  1
  Na  Na5  1  0.69392200  0.69392200  0.00000000  1
  Na  Na6  1  0.30607800  0.30607800  0.00000000  1
  Na  Na7  1  0.35407100  0.35407100  0.50000000  1
  Zn  Zn8  1  0.50000000  0.00000000  0.25000000  1
  Zn  Zn9  1  0.00000000  0.50000000  0.25000000  1
  Zn  Zn10  1  0.00000000  0.50000000  0.75000000  1
  Zn  Zn11  1  0.50000000  0.00000000  0.75000000  1
  P  P12  1  0.36191000  0.63809000  0.78867800  1
  P  P13  1  0.63809000  0.36191000  0.78867800  1
  P  P14  1  0.86191000  0.86191000  0.71132200  1
  P  P15  1  0.36191000  0.63809000  0.21132200  1
  P  P16  1  0.86191000  0.86191000  0.28867800  1
  P  P17  1  0.13809000  0.13809000  0.71132200  1
  P  P18  1  0.13809000  0.13809000  0.28867800  1
  P  P19  1  0.63809000  0.36191000  0.21132200  1
  O  O20  1  0.08045600  0.30602900  0.35319000  1
  O  O21  1  0.91954400  0.69397100  0.35319000  1
  O  O22  1  0.30602900  0.08045600  0.64681000  1
  O  O23  1  0.80602900  0.41954400  0.85319000  1
  O  O24  1  0.19397100  0.58045600  0.85319000  1
  O  O25  1  0.41954400  0.80602900  0.14681000  1
  O  O26  1  0.58045600  0.19397100  0.14681000  1
  O  O27  1  0.69397100  0.91954400  0.64681000  1
  O  O28  1  0.91954400  0.69397100  0.64681000  1
  O  O29  1  0.08045600  0.30602900  0.64681000  1
  O  O30  1  0.69397100  0.91954400  0.35319000  1
  O  O31  1  0.19397100  0.58045600  0.14681000  1
  O  O32  1  0.80602900  0.41954400  0.14681000  1
  O  O33  1  0.58045600  0.19397100  0.85319000  1
  O  O34  1  0.41954400  0.80602900  0.85319000  1
  O  O35  1  0.30602900  0.08045600  0.35319000  1
  O  O36  1  0.86350400  0.86350400  0.85651900  1
  O  O37  1  0.13649600  0.13649600  0.85651900  1
  O  O38  1  0.86350400  0.86350400  0.14348100  1
  O  O39  1  0.36350400  0.63649600  0.35651900  1
  O  O40  1  0.00000000  0.00000000  0.34540600  1
  O  O41  1  0.50000000  0.50000000  0.84540600  1
  O  O42  1  0.50000000  0.50000000  0.15459400  1
  O  O43  1  0.00000000  0.00000000  0.65459400  1
  O  O44  1  0.13649600  0.13649600  0.14348100  1
  O  O45  1  0.36350400  0.63649600  0.64348100  1
  O  O46  1  0.63649600  0.36350400  0.64348100  1
  O  O47  1  0.63649600  0.36350400  0.35651900  1
