# generated using pymatgen
data_CuSbPbS3
_symmetry_space_group_name_H-M   'P 1'
_cell_length_a   7.88543300
_cell_length_b   8.28655300
_cell_length_c   8.81615500
_cell_angle_alpha   90.00000000
_cell_angle_beta   90.00000000
_cell_angle_gamma   90.00000000
_symmetry_Int_Tables_number   1
_chemical_formula_structural   CuSbPbS3
_chemical_formula_sum   'Cu4 Sb4 Pb4 S12'
_cell_volume   576.07453176
_cell_formula_units_Z   4
loop_
 _symmetry_equiv_pos_site_id
 _symmetry_equiv_pos_as_xyz
  1  'x, y, z'
loop_
 _atom_site_type_symbol
 _atom_site_label
 _atom_site_symmetry_multiplicity
 _atom_site_fract_x
 _atom_site_fract_y
 _atom_site_fract_z
 _atom_site_occupancy
  Cu  Cu0  1  0.24527400  0.27753300  0.43218500  1
  Cu  Cu1  1  0.74527400  0.72246700  0.93218500  1
  Cu  Cu2  1  0.75472600  0.27753300  0.43218500  1
  Cu  Cu3  1  0.25472600  0.72246700  0.93218500  1
  Sb  Sb4  1  0.50000000  0.06863900  0.05980100  1
  Sb  Sb5  1  0.00000000  0.93136100  0.55980100  1
  Sb  Sb6  1  0.50000000  0.49064500  0.65849400  1
  Sb  Sb7  1  0.00000000  0.50935500  0.15849400  1
  Pb  Pb8  1  0.50000000  0.93047300  0.51259600  1
  Pb  Pb9  1  0.00000000  0.06952700  0.01259600  1
  Pb  Pb10  1  0.50000000  0.55184900  0.17314100  1
  Pb  Pb11  1  0.00000000  0.44815100  0.67314100  1
  S  S12  1  0.00000000  0.76925000  0.79837600  1
  S  S13  1  0.00000000  0.24388200  0.29191200  1
  S  S14  1  0.26870800  0.56120000  0.47890600  1
  S  S15  1  0.50000000  0.75611800  0.79191200  1
  S  S16  1  0.23129200  0.43880000  0.97890600  1
  S  S17  1  0.76480800  0.11089800  0.64505200  1
  S  S18  1  0.73129200  0.56120000  0.47890600  1
  S  S19  1  0.23519200  0.11089800  0.64505200  1
  S  S20  1  0.76870800  0.43880000  0.97890600  1
  S  S21  1  0.26480800  0.88910200  0.14505200  1
  S  S22  1  0.50000000  0.23075000  0.29837600  1
  S  S23  1  0.73519200  0.88910200  0.14505200  1
