# generated using pymatgen
data_Cu4Mo5O17
_symmetry_space_group_name_H-M   'P 1'
_cell_length_a   6.85581400
_cell_length_b   9.64022077
_cell_length_c   11.09873911
_cell_angle_alpha   105.85593871
_cell_angle_beta   92.03034040
_cell_angle_gamma   110.06463617
_symmetry_Int_Tables_number   1
_chemical_formula_structural   Cu4Mo5O17
_chemical_formula_sum   'Cu8 Mo10 O34'
_cell_volume   655.98936630
_cell_formula_units_Z   2
loop_
 _symmetry_equiv_pos_site_id
 _symmetry_equiv_pos_as_xyz
  1  'x, y, z'
loop_
 _atom_site_type_symbol
 _atom_site_label
 _atom_site_symmetry_multiplicity
 _atom_site_fract_x
 _atom_site_fract_y
 _atom_site_fract_z
 _atom_site_occupancy
  Cu  Cu0  1  0.74593800  0.28786400  0.07471600  1
  Cu  Cu1  1  0.07608900  0.77649500  0.55499300  1
  Cu  Cu2  1  0.25406200  0.71213600  0.92528400  1
  Cu  Cu3  1  0.92391100  0.22350500  0.44500700  1
  Cu  Cu4  1  0.68576000  0.45352100  0.37500500  1
  Cu  Cu5  1  0.31424000  0.54647900  0.62499500  1
  Cu  Cu6  1  0.21345400  0.90329700  0.29931000  1
  Cu  Cu7  1  0.78654600  0.09670300  0.70069000  1
  Mo  Mo8  1  0.31736700  0.18817800  0.61109400  1
  Mo  Mo9  1  0.75746900  0.62251100  0.02720200  1
  Mo  Mo10  1  0.68263300  0.81182200  0.38890600  1
  Mo  Mo11  1  0.77503300  0.79204900  0.79986600  1
  Mo  Mo12  1  0.24253100  0.37748900  0.97279800  1
  Mo  Mo13  1  0.71878900  0.96164000  0.14861600  1
  Mo  Mo14  1  0.20624400  0.55701500  0.32885600  1
  Mo  Mo15  1  0.22496700  0.20795100  0.20013400  1
  Mo  Mo16  1  0.79375600  0.44298500  0.67114400  1
  Mo  Mo17  1  0.28121100  0.03836000  0.85138400  1
  O  O18  1  0.73516000  0.00911300  0.32914000  1
  O  O19  1  0.16148800  0.32891400  0.34816000  1
  O  O20  1  0.33837700  0.75031600  0.30439700  1
  O  O21  1  0.69943400  0.75004700  0.17826400  1
  O  O22  1  0.20348400  0.61826600  0.50142300  1
  O  O23  1  0.02472400  0.66299800  0.06428900  1
  O  O24  1  0.63964200  0.90528700  0.53963300  1
  O  O25  1  0.54863900  0.59892900  0.37063200  1
  O  O26  1  0.85879200  0.15270000  0.13087200  1
  O  O27  1  0.06440100  0.50248000  0.73107600  1
  O  O28  1  0.04683000  0.17079300  0.58604600  1
  O  O29  1  0.95317000  0.82920700  0.41395400  1
  O  O30  1  0.26484000  0.99088700  0.67086000  1
  O  O31  1  0.49684600  0.25232400  0.23688800  1
  O  O32  1  0.14120800  0.84730000  0.86912800  1
  O  O33  1  0.90218600  0.98788200  0.79081000  1
  O  O34  1  0.30056600  0.24995300  0.82173600  1
  O  O35  1  0.54548500  0.08449800  0.90302300  1
  O  O36  1  0.97527600  0.33700200  0.93571100  1
  O  O37  1  0.74395800  0.58135700  0.84343600  1
  O  O38  1  0.50315400  0.74767600  0.76311200  1
  O  O39  1  0.36035800  0.09471300  0.46036700  1
  O  O40  1  0.79651600  0.38173400  0.49857700  1
  O  O41  1  0.45451500  0.91550200  0.09697700  1
  O  O42  1  0.78308200  0.83614500  0.98949100  1
  O  O43  1  0.83851200  0.67108600  0.65184000  1
  O  O44  1  0.45136100  0.40107100  0.62936800  1
  O  O45  1  0.25604200  0.41864300  0.15656400  1
  O  O46  1  0.93559900  0.49752000  0.26892400  1
  O  O47  1  0.66162300  0.24968400  0.69560300  1
  O  O48  1  0.21691800  0.16385500  0.01050900  1
  O  O49  1  0.09781400  0.01211800  0.20919000  1
  O  O50  1  0.37624500  0.57091100  0.96239500  1
  O  O51  1  0.62375500  0.42908900  0.03760500  1
