# generated using pymatgen
data_PCN2Cl3
_symmetry_space_group_name_H-M   'P 1'
_cell_length_a   10.38931800
_cell_length_b   11.34117600
_cell_length_c   15.76946966
_cell_angle_alpha   80.17148072
_cell_angle_beta   90.00000000
_cell_angle_gamma   90.00000000
_symmetry_Int_Tables_number   1
_chemical_formula_structural   PCN2Cl3
_chemical_formula_sum   'P12 C12 N24 Cl36'
_cell_volume   1830.79982273
_cell_formula_units_Z   12
loop_
 _symmetry_equiv_pos_site_id
 _symmetry_equiv_pos_as_xyz
  1  'x, y, z'
loop_
 _atom_site_type_symbol
 _atom_site_label
 _atom_site_symmetry_multiplicity
 _atom_site_fract_x
 _atom_site_fract_y
 _atom_site_fract_z
 _atom_site_occupancy
  P  P0  1  0.66207900  0.84810000  0.92256300  1
  P  P1  1  0.83792100  0.34810000  0.92256300  1
  P  P2  1  0.33792100  0.15190000  0.07743700  1
  P  P3  1  0.79763100  0.99251800  0.64946700  1
  P  P4  1  0.29763100  0.50748200  0.35053300  1
  P  P5  1  0.16207900  0.65190000  0.07743700  1
  P  P6  1  0.62292700  0.11041800  0.29048100  1
  P  P7  1  0.12292700  0.38958200  0.70951900  1
  P  P8  1  0.37707300  0.88958200  0.70951900  1
  P  P9  1  0.20236900  0.00748200  0.35053300  1
  P  P10  1  0.70236900  0.49251800  0.64946700  1
  P  P11  1  0.87707300  0.61041800  0.29048100  1
  C  C12  1  0.96831000  0.74753900  0.15784500  1
  C  C13  1  0.16552700  0.14958400  0.19659300  1
  C  C14  1  0.53169000  0.24753900  0.15784500  1
  C  C15  1  0.55505000  0.03117300  0.61966600  1
  C  C16  1  0.44495000  0.96882700  0.38033400  1
  C  C17  1  0.03169000  0.25246100  0.84215500  1
  C  C18  1  0.05505000  0.46882700  0.38033400  1
  C  C19  1  0.66552700  0.35041600  0.80340700  1
  C  C20  1  0.33447300  0.64958400  0.19659300  1
  C  C21  1  0.83447300  0.85041600  0.80340700  1
  C  C22  1  0.94495000  0.53117300  0.61966600  1
  C  C23  1  0.46831000  0.75246100  0.84215500  1
  N  N24  1  0.48705500  0.06529200  0.32951400  1
  N  N25  1  0.61273700  0.23513900  0.22345000  1
  N  N26  1  0.51294500  0.93470800  0.67048600  1
  N  N27  1  0.03467700  0.66310700  0.13146500  1
  N  N28  1  0.71853200  0.43619400  0.74828700  1
  N  N29  1  0.88726300  0.73513900  0.22345000  1
  N  N30  1  0.67467500  0.06624900  0.60618000  1
  N  N31  1  0.20411000  0.19068300  0.11749100  1
  N  N32  1  0.70411000  0.30931700  0.88250900  1
  N  N33  1  0.82532500  0.56624900  0.60618000  1
  N  N34  1  0.32532500  0.93375100  0.39382000  1
  N  N35  1  0.28146800  0.56380600  0.25171300  1
  N  N36  1  0.17467500  0.43375100  0.39382000  1
  N  N37  1  0.96532300  0.33689300  0.86853500  1
  N  N38  1  0.29589000  0.69068300  0.11749100  1
  N  N39  1  0.46532300  0.16310700  0.13146500  1
  N  N40  1  0.01294500  0.56529200  0.32951400  1
  N  N41  1  0.98705500  0.43470800  0.67048600  1
  N  N42  1  0.11273700  0.26486100  0.77655000  1
  N  N43  1  0.38726300  0.76486100  0.77655000  1
  N  N44  1  0.79589000  0.80931700  0.88250900  1
  N  N45  1  0.21853200  0.06380600  0.25171300  1
  N  N46  1  0.78146800  0.93619400  0.74828700  1
  N  N47  1  0.53467700  0.83689300  0.86853500  1
  Cl  Cl48  1  0.83339500  0.51808800  0.94236000  1
  Cl  Cl49  1  0.02690300  0.22229700  0.22732800  1
  Cl  Cl50  1  0.97309700  0.77770300  0.77267200  1
  Cl  Cl51  1  0.25523600  0.85338600  0.61829400  1
  Cl  Cl52  1  0.84651600  0.87282600  0.57356500  1
  Cl  Cl53  1  0.94194600  0.37198000  0.44102600  1
  Cl  Cl54  1  0.97995300  0.89702900  0.10274600  1
  Cl  Cl55  1  0.44323900  0.38895000  0.36478700  1
  Cl  Cl56  1  0.65679600  0.75307400  0.04240400  1
  Cl  Cl57  1  0.75523600  0.64661400  0.38170600  1
  Cl  Cl58  1  0.34651600  0.62717400  0.42643500  1
  Cl  Cl59  1  0.55676100  0.61105000  0.63521300  1
  Cl  Cl60  1  0.78504200  0.48391300  0.23740600  1
  Cl  Cl61  1  0.24476400  0.35338600  0.61829400  1
  Cl  Cl62  1  0.33339500  0.98191200  0.05764000  1
  Cl  Cl63  1  0.34320400  0.24692600  0.95759600  1
  Cl  Cl64  1  0.66660500  0.01808800  0.94236000  1
  Cl  Cl65  1  0.52004700  0.39702900  0.10274600  1
  Cl  Cl66  1  0.94323900  0.11105000  0.63521300  1
  Cl  Cl67  1  0.84320400  0.25307400  0.04240400  1
  Cl  Cl68  1  0.15348400  0.12717400  0.42643500  1
  Cl  Cl69  1  0.47995300  0.60297100  0.89725400  1
  Cl  Cl70  1  0.71495800  0.98391300  0.23740600  1
  Cl  Cl71  1  0.21495800  0.51608700  0.76259400  1
  Cl  Cl72  1  0.55805400  0.87198000  0.44102600  1
  Cl  Cl73  1  0.05676100  0.88895000  0.36478700  1
  Cl  Cl74  1  0.05805400  0.62802000  0.55897400  1
  Cl  Cl75  1  0.65348400  0.37282600  0.57356500  1
  Cl  Cl76  1  0.52690300  0.27770300  0.77267200  1
  Cl  Cl77  1  0.02004700  0.10297100  0.89725400  1
  Cl  Cl78  1  0.74476400  0.14661400  0.38170600  1
  Cl  Cl79  1  0.16660500  0.48191200  0.05764000  1
  Cl  Cl80  1  0.47309700  0.72229700  0.22732800  1
  Cl  Cl81  1  0.28504200  0.01608700  0.76259400  1
  Cl  Cl82  1  0.15679600  0.74692600  0.95759600  1
  Cl  Cl83  1  0.44194600  0.12802000  0.55897400  1
