# generated using pymatgen
data_YbCo(BO2)5
_symmetry_space_group_name_H-M   'P 1'
_cell_length_a   7.47541100
_cell_length_b   8.71945400
_cell_length_c   12.45279185
_cell_angle_alpha   49.25721079
_cell_angle_beta   90.00000000
_cell_angle_gamma   90.00000000
_symmetry_Int_Tables_number   1
_chemical_formula_structural   YbCo(BO2)5
_chemical_formula_sum   'Yb4 Co4 B20 O40'
_cell_volume   614.97587232
_cell_formula_units_Z   4
loop_
 _symmetry_equiv_pos_site_id
 _symmetry_equiv_pos_as_xyz
  1  'x, y, z'
loop_
 _atom_site_type_symbol
 _atom_site_label
 _atom_site_symmetry_multiplicity
 _atom_site_fract_x
 _atom_site_fract_y
 _atom_site_fract_z
 _atom_site_occupancy
  Yb  Yb0  1  0.68378300  0.04590800  0.26548900  1
  Yb  Yb1  1  0.18378300  0.95409200  0.23451100  1
  Yb  Yb2  1  0.81621700  0.04590800  0.76548900  1
  Yb  Yb3  1  0.31621700  0.95409200  0.73451100  1
  Co  Co4  1  0.90524200  0.54176100  0.36590800  1
  Co  Co5  1  0.59475800  0.54176100  0.86590800  1
  Co  Co6  1  0.40524200  0.45823900  0.13409200  1
  Co  Co7  1  0.09475800  0.45823900  0.63409200  1
  B  B8  1  0.18724700  0.51898500  0.91156200  1
  B  B9  1  0.09950400  0.15815700  0.50795000  1
  B  B10  1  0.96455500  0.27445200  0.94551600  1
  B  B11  1  0.46455500  0.72554800  0.55448400  1
  B  B12  1  0.42814000  0.34183500  0.74542200  1
  B  B13  1  0.82174000  0.91529400  0.10269800  1
  B  B14  1  0.67826000  0.91529400  0.60269800  1
  B  B15  1  0.57186000  0.65816500  0.25457800  1
  B  B16  1  0.59950400  0.84184300  0.99205000  1
  B  B17  1  0.03544500  0.72554800  0.05448400  1
  B  B18  1  0.90049600  0.84184300  0.49205000  1
  B  B19  1  0.81275300  0.48101500  0.08843800  1
  B  B20  1  0.31275300  0.51898500  0.41156200  1
  B  B21  1  0.07186000  0.34183500  0.24542200  1
  B  B22  1  0.17826000  0.08470600  0.89730200  1
  B  B23  1  0.53544500  0.27445200  0.44551600  1
  B  B24  1  0.92814000  0.65816500  0.75457800  1
  B  B25  1  0.32174000  0.08470600  0.39730200  1
  B  B26  1  0.68724700  0.48101500  0.58843800  1
  B  B27  1  0.40049600  0.15815700  0.00795000  1
  O  O28  1  0.84297700  0.45468600  0.86267000  1
  O  O29  1  0.22510000  0.03122800  0.51736900  1
  O  O30  1  0.79099800  0.79776600  0.73269900  1
  O  O31  1  0.39201100  0.90835700  0.42322000  1
  O  O32  1  0.12076500  0.32834800  0.98951100  1
  O  O33  1  0.52869800  0.75698300  0.65435300  1
  O  O34  1  0.14662600  0.56042000  0.43917600  1
  O  O35  1  0.96640200  0.67823900  0.62786600  1
  O  O36  1  0.03359800  0.32176100  0.37213400  1
  O  O37  1  0.60798900  0.09164300  0.57678000  1
  O  O38  1  0.40377900  0.68464200  0.29987600  1
  O  O39  1  0.59622100  0.31535800  0.70012400  1
  O  O40  1  0.34297700  0.54531400  0.63733000  1
  O  O41  1  0.53359800  0.67823900  0.12786600  1
  O  O42  1  0.27490000  0.03122800  0.01736900  1
  O  O43  1  0.85337400  0.43958000  0.56082400  1
  O  O44  1  0.77490000  0.96877200  0.48263100  1
  O  O45  1  0.64662600  0.43958000  0.06082400  1
  O  O46  1  0.62076500  0.67165200  0.51048900  1
  O  O47  1  0.97130200  0.75698300  0.15435300  1
  O  O48  1  0.95032200  0.87690700  0.37586500  1
  O  O49  1  0.90377900  0.31535800  0.20012400  1
  O  O50  1  0.54967800  0.87690700  0.87586500  1
  O  O51  1  0.45032200  0.12309300  0.12413500  1
  O  O52  1  0.46640200  0.32176100  0.87213400  1
  O  O53  1  0.70900200  0.79776600  0.23269900  1
  O  O54  1  0.29099800  0.20223400  0.76730100  1
  O  O55  1  0.09622100  0.68464200  0.79987600  1
  O  O56  1  0.20900200  0.20223400  0.26730100  1
  O  O57  1  0.37923500  0.32834800  0.48951100  1
  O  O58  1  0.35337400  0.56042000  0.93917600  1
  O  O59  1  0.04967800  0.12309300  0.62413500  1
  O  O60  1  0.65702300  0.45468600  0.36267000  1
  O  O61  1  0.87923500  0.67165200  0.01048900  1
  O  O62  1  0.10798900  0.90835700  0.92322000  1
  O  O63  1  0.72510000  0.96877200  0.98263100  1
  O  O64  1  0.89201100  0.09164300  0.07678000  1
  O  O65  1  0.47130200  0.24301700  0.34564700  1
  O  O66  1  0.15702300  0.54531400  0.13733000  1
  O  O67  1  0.02869800  0.24301700  0.84564700  1
