# generated using pymatgen
data_TeI4
_symmetry_space_group_name_H-M   'P 1'
_cell_length_a   14.43140900
_cell_length_b   11.61982800
_cell_length_c   22.94260307
_cell_angle_alpha   82.02206149
_cell_angle_beta   90.00000000
_cell_angle_gamma   90.00000000
_symmetry_Int_Tables_number   1
_chemical_formula_structural   TeI4
_chemical_formula_sum   'Te16 I64'
_cell_volume   3810.02100960
_cell_formula_units_Z   16
loop_
 _symmetry_equiv_pos_site_id
 _symmetry_equiv_pos_as_xyz
  1  'x, y, z'
loop_
 _atom_site_type_symbol
 _atom_site_label
 _atom_site_symmetry_multiplicity
 _atom_site_fract_x
 _atom_site_fract_y
 _atom_site_fract_z
 _atom_site_occupancy
  Te  Te0  1  0.36988500  0.23462700  0.83061200  1
  Te  Te1  1  0.86988500  0.76537300  0.66938800  1
  Te  Te2  1  0.86169000  0.04450400  0.81084000  1
  Te  Te3  1  0.35407000  0.82725300  0.89349900  1
  Te  Te4  1  0.64593000  0.17274700  0.10650100  1
  Te  Te5  1  0.62874100  0.63953100  0.37419900  1
  Te  Te6  1  0.14593000  0.82725300  0.39349900  1
  Te  Te7  1  0.13011500  0.23462700  0.33061200  1
  Te  Te8  1  0.12874100  0.36046900  0.12580100  1
  Te  Te9  1  0.87125900  0.63953100  0.87419900  1
  Te  Te10  1  0.85407000  0.17274700  0.60650100  1
  Te  Te11  1  0.37125900  0.36046900  0.62580100  1
  Te  Te12  1  0.63831000  0.04450400  0.31084000  1
  Te  Te13  1  0.13831000  0.95549600  0.18916000  1
  Te  Te14  1  0.36169000  0.95549600  0.68916000  1
  Te  Te15  1  0.63011500  0.76537300  0.16938800  1
  I  I16  1  0.24340900  0.01646000  0.80127900  1
  I  I17  1  0.74823900  0.61002000  0.25696400  1
  I  I18  1  0.48281100  0.05803000  0.90616500  1
  I  I19  1  0.50681500  0.46263700  0.35024500  1
  I  I20  1  0.23940200  0.50425900  0.56080900  1
  I  I21  1  0.73768200  0.22251400  0.82526100  1
  I  I22  1  0.00681500  0.53736300  0.14975500  1
  I  I23  1  0.52328200  0.07735400  0.40664300  1
  I  I24  1  0.74340900  0.98354000  0.69872100  1
  I  I25  1  0.01791600  0.80663700  0.27495400  1
  I  I26  1  0.75659100  0.98354000  0.19872100  1
  I  I27  1  0.98354200  0.31297500  0.53772300  1
  I  I28  1  0.00164900  0.40966500  0.34583100  1
  I  I29  1  0.74175500  0.86535400  0.88397100  1
  I  I30  1  0.01718900  0.05803000  0.40616500  1
  I  I31  1  0.47167500  0.30801600  0.52765300  1
  I  I32  1  0.74200600  0.11852000  0.51457200  1
  I  I33  1  0.24200600  0.88148000  0.98542800  1
  I  I34  1  0.02832500  0.30801600  0.02765300  1
  I  I35  1  0.49318500  0.53736300  0.64975500  1
  I  I36  1  0.49835100  0.40966500  0.84583100  1
  I  I37  1  0.98281100  0.94197000  0.59383500  1
  I  I38  1  0.01198000  0.17614900  0.21578400  1
  I  I39  1  0.74809500  0.72722000  0.57878200  1
  I  I40  1  0.23768200  0.77748600  0.67473900  1
  I  I41  1  0.25190500  0.27278000  0.42121800  1
  I  I42  1  0.99318500  0.46263700  0.85024500  1
  I  I43  1  0.75799400  0.11852000  0.01457200  1
  I  I44  1  0.24809500  0.27278000  0.92121800  1
  I  I45  1  0.74046700  0.35267600  0.63281700  1
  I  I46  1  0.75824500  0.86535400  0.38397100  1
  I  I47  1  0.97167500  0.69198400  0.97234700  1
  I  I48  1  0.51198000  0.82385100  0.28421600  1
  I  I49  1  0.51718900  0.94197000  0.09383500  1
  I  I50  1  0.51645800  0.31297500  0.03772300  1
  I  I51  1  0.25824500  0.13464600  0.11602900  1
  I  I52  1  0.48208400  0.80663700  0.77495400  1
  I  I53  1  0.75953300  0.35267600  0.13281700  1
  I  I54  1  0.26059800  0.50425900  0.06080900  1
  I  I55  1  0.48354200  0.68702500  0.96227700  1
  I  I56  1  0.25799400  0.88148000  0.48542800  1
  I  I57  1  0.73940200  0.49574100  0.93919100  1
  I  I58  1  0.24046700  0.64732400  0.86718300  1
  I  I59  1  0.24823900  0.38998000  0.24303600  1
  I  I60  1  0.50164900  0.59033500  0.15416900  1
  I  I61  1  0.51791600  0.19336300  0.22504600  1
  I  I62  1  0.02328200  0.92264600  0.09335700  1
  I  I63  1  0.97671800  0.07735400  0.90664300  1
  I  I64  1  0.98208400  0.19336300  0.72504600  1
  I  I65  1  0.47671800  0.92264600  0.59335700  1
  I  I66  1  0.75176100  0.61002000  0.75696400  1
  I  I67  1  0.99835100  0.59033500  0.65416900  1
  I  I68  1  0.48802000  0.17614900  0.71578400  1
  I  I69  1  0.76059800  0.49574100  0.43919100  1
  I  I70  1  0.26231800  0.77748600  0.17473900  1
  I  I71  1  0.01645800  0.68702500  0.46227700  1
  I  I72  1  0.25659100  0.01646000  0.30127900  1
  I  I73  1  0.24175500  0.13464600  0.61602900  1
  I  I74  1  0.76231800  0.22251400  0.32526100  1
  I  I75  1  0.98802000  0.82385100  0.78421600  1
  I  I76  1  0.25176100  0.38998000  0.74303600  1
  I  I77  1  0.75190500  0.72722000  0.07878200  1
  I  I78  1  0.52832500  0.69198400  0.47234700  1
  I  I79  1  0.25953300  0.64732400  0.36718300  1
