# generated using pymatgen
data_VSb2NCl14
_symmetry_space_group_name_H-M   'P 1'
_cell_length_a   6.43426200
_cell_length_b   13.09297100
_cell_length_c   25.23974594
_cell_angle_alpha   72.42829339
_cell_angle_beta   90.00000000
_cell_angle_gamma   90.00000000
_symmetry_Int_Tables_number   1
_chemical_formula_structural   VSb2NCl14
_chemical_formula_sum   'V4 Sb8 N4 Cl56'
_cell_volume   2027.07435974
_cell_formula_units_Z   4
loop_
 _symmetry_equiv_pos_site_id
 _symmetry_equiv_pos_as_xyz
  1  'x, y, z'
loop_
 _atom_site_type_symbol
 _atom_site_label
 _atom_site_symmetry_multiplicity
 _atom_site_fract_x
 _atom_site_fract_y
 _atom_site_fract_z
 _atom_site_occupancy
  V  V0  1  0.94889300  0.87243100  0.13812400  1
  V  V1  1  0.55110700  0.87243100  0.63812400  1
  V  V2  1  0.05110700  0.12756900  0.86187600  1
  V  V3  1  0.44889300  0.12756900  0.36187600  1
  Sb  Sb4  1  0.42900300  0.29578200  0.46603700  1
  Sb  Sb5  1  0.60059100  0.29800400  0.21219000  1
  Sb  Sb6  1  0.10059100  0.70199600  0.28781000  1
  Sb  Sb7  1  0.39940900  0.70199600  0.78781000  1
  Sb  Sb8  1  0.89940900  0.29800400  0.71219000  1
  Sb  Sb9  1  0.92900300  0.70421800  0.03396300  1
  Sb  Sb10  1  0.57099700  0.70421800  0.53396300  1
  Sb  Sb11  1  0.07099700  0.29578200  0.96603700  1
  N  N12  1  0.41659000  0.97523600  0.64626600  1
  N  N13  1  0.08341000  0.97523600  0.14626600  1
  N  N14  1  0.58341000  0.02476400  0.35373400  1
  N  N15  1  0.91659000  0.02476400  0.85373400  1
  Cl  Cl16  1  0.29092800  0.19119100  0.27025100  1
  Cl  Cl17  1  0.71755400  0.92869100  0.34680600  1
  Cl  Cl18  1  0.77719000  0.69674900  0.12582000  1
  Cl  Cl19  1  0.42042300  0.31565500  0.12816700  1
  Cl  Cl20  1  0.83993100  0.95511500  0.60484400  1
  Cl  Cl21  1  0.25804300  0.44253800  0.97506900  1
  Cl  Cl22  1  0.16492700  0.16935100  0.50711300  1
  Cl  Cl23  1  0.61792900  0.12852800  0.44258800  1
  Cl  Cl24  1  0.07957700  0.31565500  0.62816700  1
  Cl  Cl25  1  0.83507300  0.83064900  0.49288700  1
  Cl  Cl26  1  0.38170800  0.74963100  0.44995600  1
  Cl  Cl27  1  0.40906500  0.61470700  0.32475800  1
  Cl  Cl28  1  0.57957700  0.68434500  0.87183300  1
  Cl  Cl29  1  0.78766300  0.39732000  0.91773400  1
  Cl  Cl30  1  0.21755400  0.07130900  0.15319400  1
  Cl  Cl31  1  0.88170800  0.25036900  0.05004400  1
  Cl  Cl32  1  0.71233700  0.39732000  0.41773400  1
  Cl  Cl33  1  0.75804300  0.55746200  0.52493100  1
  Cl  Cl34  1  0.76934100  0.25824000  0.81080600  1
  Cl  Cl35  1  0.22281000  0.30325100  0.87418000  1
  Cl  Cl36  1  0.24195700  0.44253800  0.47506900  1
  Cl  Cl37  1  0.72821100  0.12624400  0.21296500  1
  Cl  Cl38  1  0.11829200  0.74963100  0.94995600  1
  Cl  Cl39  1  0.66492700  0.83064900  0.99288700  1
  Cl  Cl40  1  0.79092800  0.80880900  0.22974900  1
  Cl  Cl41  1  0.70907200  0.80880900  0.72974900  1
  Cl  Cl42  1  0.66006900  0.95511500  0.10484400  1
  Cl  Cl43  1  0.74195700  0.55746200  0.02493100  1
  Cl  Cl44  1  0.61829200  0.25036900  0.55004400  1
  Cl  Cl45  1  0.05817800  0.45328500  0.72280800  1
  Cl  Cl46  1  0.78244600  0.92869100  0.84680600  1
  Cl  Cl47  1  0.55817800  0.54671500  0.77719200  1
  Cl  Cl48  1  0.72281000  0.69674900  0.62582000  1
  Cl  Cl49  1  0.28766300  0.60268000  0.58226600  1
  Cl  Cl50  1  0.44182200  0.45328500  0.22280800  1
  Cl  Cl51  1  0.27719000  0.30325100  0.37418000  1
  Cl  Cl52  1  0.21233700  0.60268000  0.08226600  1
  Cl  Cl53  1  0.11792900  0.87147200  0.05741200  1
  Cl  Cl54  1  0.90906500  0.38529300  0.17524200  1
  Cl  Cl55  1  0.92042300  0.68434500  0.37183300  1
  Cl  Cl56  1  0.59093500  0.38529300  0.67524200  1
  Cl  Cl57  1  0.33993100  0.04488500  0.89515600  1
  Cl  Cl58  1  0.22821100  0.87375600  0.28703500  1
  Cl  Cl59  1  0.38207100  0.87147200  0.55741200  1
  Cl  Cl60  1  0.20907200  0.19119100  0.77025100  1
  Cl  Cl61  1  0.16006900  0.04488500  0.39515600  1
  Cl  Cl62  1  0.23065900  0.74176000  0.18919400  1
  Cl  Cl63  1  0.94182200  0.54671500  0.27719200  1
  Cl  Cl64  1  0.33507300  0.16935100  0.00711300  1
  Cl  Cl65  1  0.28244600  0.07130900  0.65319400  1
  Cl  Cl66  1  0.26934100  0.74176000  0.68919400  1
  Cl  Cl67  1  0.73065900  0.25824000  0.31080600  1
  Cl  Cl68  1  0.27178900  0.87375600  0.78703500  1
  Cl  Cl69  1  0.09093500  0.61470700  0.82475800  1
  Cl  Cl70  1  0.77178900  0.12624400  0.71296500  1
  Cl  Cl71  1  0.88207100  0.12852800  0.94258800  1
