# generated using pymatgen
data_PBr2N
_symmetry_space_group_name_H-M   'P 1'
_cell_length_a   9.66744200
_cell_length_b   10.58713080
_cell_length_c   12.27776684
_cell_angle_alpha   101.14687595
_cell_angle_beta   112.22213814
_cell_angle_gamma   93.39530871
_symmetry_Int_Tables_number   1
_chemical_formula_structural   PBr2N
_chemical_formula_sum   'P10 Br20 N10'
_cell_volume   1129.17151701
_cell_formula_units_Z   10
loop_
 _symmetry_equiv_pos_site_id
 _symmetry_equiv_pos_as_xyz
  1  'x, y, z'
loop_
 _atom_site_type_symbol
 _atom_site_label
 _atom_site_symmetry_multiplicity
 _atom_site_fract_x
 _atom_site_fract_y
 _atom_site_fract_z
 _atom_site_occupancy
  P  P0  1  0.61462500  0.31296800  0.40343800  1
  P  P1  1  0.80522600  0.01087400  0.14500300  1
  P  P2  1  0.30764200  0.95621400  0.66299400  1
  P  P3  1  0.19477400  0.98912600  0.85499700  1
  P  P4  1  0.65169200  0.47558800  0.24819400  1
  P  P5  1  0.38537500  0.68703200  0.59656200  1
  P  P6  1  0.83256500  0.29481000  0.16948600  1
  P  P7  1  0.16743500  0.70519000  0.83051400  1
  P  P8  1  0.34830800  0.52441200  0.75180600  1
  P  P9  1  0.69235800  0.04378600  0.33700600  1
  Br  Br10  1  0.99336200  0.66643900  0.64128700  1
  Br  Br11  1  0.03943700  0.62053200  0.92333500  1
  Br  Br12  1  0.97306200  0.04593800  0.84398400  1
  Br  Br13  1  0.57242700  0.48156300  0.86367500  1
  Br  Br14  1  0.62970700  0.72430200  0.63754900  1
  Br  Br15  1  0.79754400  0.66489500  0.30209500  1
  Br  Br16  1  0.47264700  0.91309700  0.25880900  1
  Br  Br17  1  0.72070900  0.35178200  0.60271800  1
  Br  Br18  1  0.19840600  0.99013700  0.48025100  1
  Br  Br19  1  0.20245600  0.33510500  0.69790500  1
  Br  Br20  1  0.27929100  0.64821800  0.39728200  1
  Br  Br21  1  0.02693800  0.95406200  0.15601600  1
  Br  Br22  1  0.37029300  0.27569800  0.36245100  1
  Br  Br23  1  0.35645800  0.13943700  0.00833100  1
  Br  Br24  1  0.80159400  0.00986300  0.51974900  1
  Br  Br25  1  0.64354200  0.86056300  0.99166900  1
  Br  Br26  1  0.00663800  0.33356100  0.35871300  1
  Br  Br27  1  0.96056300  0.37946800  0.07666500  1
  Br  Br28  1  0.42757300  0.51843700  0.13632500  1
  Br  Br29  1  0.52735300  0.08690300  0.74119100  1
  N  N30  1  0.78550200  0.14483300  0.10607000  1
  N  N31  1  0.65106300  0.44487500  0.36975300  1
  N  N32  1  0.21449800  0.85516700  0.89393000  1
  N  N33  1  0.79461500  0.99359100  0.26707500  1
  N  N34  1  0.30664800  0.62905800  0.84129200  1
  N  N35  1  0.34893700  0.55512500  0.63024700  1
  N  N36  1  0.20538500  0.00640900  0.73292500  1
  N  N37  1  0.33329100  0.80974600  0.65796800  1
  N  N38  1  0.66670900  0.19025400  0.34203200  1
  N  N39  1  0.69335200  0.37094200  0.15870800  1
