# generated using pymatgen
data_K2ZnCl4
_symmetry_space_group_name_H-M   'P 1'
_cell_length_a   7.40052300
_cell_length_b   9.05207100
_cell_length_c   12.74511800
_cell_angle_alpha   90.00000000
_cell_angle_beta   90.00000000
_cell_angle_gamma   90.00000000
_symmetry_Int_Tables_number   1
_chemical_formula_structural   K2ZnCl4
_chemical_formula_sum   'K8 Zn4 Cl16'
_cell_volume   853.79621485
_cell_formula_units_Z   4
loop_
 _symmetry_equiv_pos_site_id
 _symmetry_equiv_pos_as_xyz
  1  'x, y, z'
loop_
 _atom_site_type_symbol
 _atom_site_label
 _atom_site_symmetry_multiplicity
 _atom_site_fract_x
 _atom_site_fract_y
 _atom_site_fract_z
 _atom_site_occupancy
  K  K0  1  0.25000000  0.63238700  0.58488000  1
  K  K1  1  0.75000000  0.00506000  0.68593200  1
  K  K2  1  0.75000000  0.86761300  0.08488000  1
  K  K3  1  0.75000000  0.36761300  0.41512000  1
  K  K4  1  0.25000000  0.13238700  0.91512000  1
  K  K5  1  0.25000000  0.99494000  0.31406800  1
  K  K6  1  0.75000000  0.50506000  0.81406800  1
  K  K7  1  0.25000000  0.49494000  0.18593200  1
  Zn  Zn8  1  0.25000000  0.21862800  0.58099500  1
  Zn  Zn9  1  0.25000000  0.71862800  0.91900500  1
  Zn  Zn10  1  0.75000000  0.78137200  0.41900500  1
  Zn  Zn11  1  0.75000000  0.28137200  0.08099500  1
  Cl  Cl12  1  0.50101700  0.69641400  0.33137800  1
  Cl  Cl13  1  0.49898300  0.30358600  0.66862200  1
  Cl  Cl14  1  0.25000000  0.33327300  0.41931100  1
  Cl  Cl15  1  0.00101700  0.30358600  0.66862200  1
  Cl  Cl16  1  0.75000000  0.52962500  0.06554000  1
  Cl  Cl17  1  0.99898300  0.69641400  0.33137800  1
  Cl  Cl18  1  0.25000000  0.47037500  0.93446000  1
  Cl  Cl19  1  0.00101700  0.80358600  0.83137800  1
  Cl  Cl20  1  0.99898300  0.19641400  0.16862200  1
  Cl  Cl21  1  0.75000000  0.16672700  0.91931100  1
  Cl  Cl22  1  0.75000000  0.66672700  0.58068900  1
  Cl  Cl23  1  0.75000000  0.02962500  0.43446000  1
  Cl  Cl24  1  0.49898300  0.80358600  0.83137800  1
  Cl  Cl25  1  0.25000000  0.83327300  0.08068900  1
  Cl  Cl26  1  0.25000000  0.97037500  0.56554000  1
  Cl  Cl27  1  0.50101700  0.19641400  0.16862200  1
