# generated using pymatgen
data_K3Lu(SiO3)3
_symmetry_space_group_name_H-M   'P 1'
_cell_length_a   5.86784500
_cell_length_b   13.00990000
_cell_length_c   14.11711400
_cell_angle_alpha   90.00000000
_cell_angle_beta   90.00000000
_cell_angle_gamma   90.00000000
_symmetry_Int_Tables_number   1
_chemical_formula_structural   K3Lu(SiO3)3
_chemical_formula_sum   'K12 Lu4 Si12 O36'
_cell_volume   1077.70156506
_cell_formula_units_Z   4
loop_
 _symmetry_equiv_pos_site_id
 _symmetry_equiv_pos_as_xyz
  1  'x, y, z'
loop_
 _atom_site_type_symbol
 _atom_site_label
 _atom_site_symmetry_multiplicity
 _atom_site_fract_x
 _atom_site_fract_y
 _atom_site_fract_z
 _atom_site_occupancy
  K  K0  1  0.85713900  0.33611800  0.50000000  1
  K  K1  1  0.85614500  0.34835500  0.00000000  1
  K  K2  1  0.34109700  0.62621100  0.73515700  1
  K  K3  1  0.14385500  0.84835500  0.50000000  1
  K  K4  1  0.34556900  0.12154000  0.50000000  1
  K  K5  1  0.65890300  0.12621100  0.23515700  1
  K  K6  1  0.34109700  0.62621100  0.26484300  1
  K  K7  1  0.30384300  0.10709700  0.00000000  1
  K  K8  1  0.65890300  0.12621100  0.76484300  1
  K  K9  1  0.65443100  0.62154000  0.00000000  1
  K  K10  1  0.69615700  0.60709700  0.50000000  1
  K  K11  1  0.14286100  0.83611800  0.00000000  1
  Lu  Lu12  1  0.14481600  0.95932400  0.24298200  1
  Lu  Lu13  1  0.85518400  0.45932400  0.25701800  1
  Lu  Lu14  1  0.14481600  0.95932400  0.75701800  1
  Lu  Lu15  1  0.85518400  0.45932400  0.74298200  1
  Si  Si16  1  0.34897900  0.42011900  0.11588700  1
  Si  Si17  1  0.82989700  0.74370700  0.73302600  1
  Si  Si18  1  0.65102100  0.92011900  0.38411300  1
  Si  Si19  1  0.82989700  0.74370700  0.26697400  1
  Si  Si20  1  0.17010300  0.24370700  0.23302600  1
  Si  Si21  1  0.65484100  0.88246500  0.11182300  1
  Si  Si22  1  0.65102100  0.92011900  0.61588700  1
  Si  Si23  1  0.17010300  0.24370700  0.76697400  1
  Si  Si24  1  0.34515900  0.38246500  0.38817700  1
  Si  Si25  1  0.34515900  0.38246500  0.61182300  1
  Si  Si26  1  0.65484100  0.88246500  0.88817700  1
  Si  Si27  1  0.34897900  0.42011900  0.88411300  1
  O  O28  1  0.59398400  0.46906700  0.14500200  1
  O  O29  1  0.59215300  0.43442600  0.36899100  1
  O  O30  1  0.17445100  0.12198000  0.78718900  1
  O  O31  1  0.12739300  0.48452200  0.14909400  1
  O  O32  1  0.32876300  0.29582500  0.14660100  1
  O  O33  1  0.59398400  0.46906700  0.85499800  1
  O  O34  1  0.65772700  0.83775100  0.00000000  1
  O  O35  1  0.59215300  0.43442600  0.63100900  1
  O  O36  1  0.12739300  0.48452200  0.85090600  1
  O  O37  1  0.12688500  0.45502100  0.36866200  1
  O  O38  1  0.40784700  0.93442600  0.86899100  1
  O  O39  1  0.67123700  0.79582500  0.64660100  1
  O  O40  1  0.31562000  0.26812300  0.66679800  1
  O  O41  1  0.17445100  0.12198000  0.21281100  1
  O  O42  1  0.32876300  0.29582500  0.85339900  1
  O  O43  1  0.40601600  0.96906700  0.64500200  1
  O  O44  1  0.87311500  0.95502100  0.13133800  1
  O  O45  1  0.82554900  0.62198000  0.71281100  1
  O  O46  1  0.64956700  0.90716700  0.50000000  1
  O  O47  1  0.91895700  0.29419600  0.76434700  1
  O  O48  1  0.67123700  0.79582500  0.35339900  1
  O  O49  1  0.91895700  0.29419600  0.23565300  1
  O  O50  1  0.87311500  0.95502100  0.86866200  1
  O  O51  1  0.35043300  0.40716700  0.00000000  1
  O  O52  1  0.40784700  0.93442600  0.13100900  1
  O  O53  1  0.68438000  0.76812300  0.83320200  1
  O  O54  1  0.08104300  0.79419600  0.73565300  1
  O  O55  1  0.12688500  0.45502100  0.63133800  1
  O  O56  1  0.68438000  0.76812300  0.16679800  1
  O  O57  1  0.40601600  0.96906700  0.35499800  1
  O  O58  1  0.87260700  0.98452200  0.35090600  1
  O  O59  1  0.08104300  0.79419600  0.26434700  1
  O  O60  1  0.87260700  0.98452200  0.64909400  1
  O  O61  1  0.34227300  0.33775100  0.50000000  1
  O  O62  1  0.82554900  0.62198000  0.28718900  1
  O  O63  1  0.31562000  0.26812300  0.33320200  1
