# generated using pymatgen
data_Nb6SI9
_symmetry_space_group_name_H-M   'P 1'
_cell_length_a   10.35610063
_cell_length_b   10.81599670
_cell_length_c   11.99648945
_cell_angle_alpha   106.36864800
_cell_angle_beta   104.80129763
_cell_angle_gamma   112.62525643
_symmetry_Int_Tables_number   1
_chemical_formula_structural   Nb6SI9
_chemical_formula_sum   'Nb12 S2 I18'
_cell_volume   1084.96656517
_cell_formula_units_Z   2
loop_
 _symmetry_equiv_pos_site_id
 _symmetry_equiv_pos_as_xyz
  1  'x, y, z'
loop_
 _atom_site_type_symbol
 _atom_site_label
 _atom_site_symmetry_multiplicity
 _atom_site_fract_x
 _atom_site_fract_y
 _atom_site_fract_z
 _atom_site_occupancy
  Nb  Nb0  1  0.61274500  0.74100200  0.04359900  1
  Nb  Nb1  1  0.10618800  0.97887100  0.67619500  1
  Nb  Nb2  1  0.98316100  0.14782000  0.59066900  1
  Nb  Nb3  1  0.76382300  0.84367200  0.46860500  1
  Nb  Nb4  1  0.01683900  0.85218000  0.40933100  1
  Nb  Nb5  1  0.48199500  0.56168100  0.18738000  1
  Nb  Nb6  1  0.32079500  0.48513800  0.92812600  1
  Nb  Nb7  1  0.89381200  0.02112900  0.32380500  1
  Nb  Nb8  1  0.23617700  0.15632800  0.53139500  1
  Nb  Nb9  1  0.38725500  0.25899800  0.95640100  1
  Nb  Nb10  1  0.67920500  0.51486200  0.07187400  1
  Nb  Nb11  1  0.51800500  0.43831900  0.81262000  1
  S  S12  1  0.26141700  0.24272200  0.74907300  1
  S  S13  1  0.73858300  0.75727800  0.25092700  1
  I  I14  1  0.32275700  0.94318200  0.57599600  1
  I  I15  1  0.57393800  0.34706200  0.21560500  1
  I  I16  1  0.10369200  0.33107800  0.46316000  1
  I  I17  1  0.17816700  0.31412700  0.05648600  1
  I  I18  1  0.82183300  0.68587300  0.94351400  1
  I  I19  1  0.24073000  0.94741800  0.90269500  1
  I  I20  1  0.89630800  0.66892200  0.53684000  1
  I  I21  1  0.54270600  0.35727200  0.57093400  1
  I  I22  1  0.99303000  0.58236700  0.22750800  1
  I  I23  1  0.75927000  0.05258200  0.09730500  1
  I  I24  1  0.36985500  0.74864500  0.11888800  1
  I  I25  1  0.67724300  0.05681800  0.42400400  1
  I  I26  1  0.00697000  0.41763300  0.77249200  1
  I  I27  1  0.85688300  0.99407900  0.73663500  1
  I  I28  1  0.45729400  0.64272800  0.42906600  1
  I  I29  1  0.14311700  0.00592100  0.26336500  1
  I  I30  1  0.42606200  0.65293800  0.78439500  1
  I  I31  1  0.63014500  0.25135500  0.88111200  1
