# generated using pymatgen
data_Zr6NiCl15
_symmetry_space_group_name_H-M   'P 1'
_cell_length_a   8.95535739
_cell_length_b   8.95535739
_cell_length_c   8.95535739
_cell_angle_alpha   109.47122063
_cell_angle_beta   109.47122063
_cell_angle_gamma   109.47122063
_symmetry_Int_Tables_number   1
_chemical_formula_structural   Zr6NiCl15
_chemical_formula_sum   'Zr6 Ni1 Cl15'
_cell_volume   552.87490316
_cell_formula_units_Z   1
loop_
 _symmetry_equiv_pos_site_id
 _symmetry_equiv_pos_as_xyz
  1  'x, y, z'
loop_
 _atom_site_type_symbol
 _atom_site_label
 _atom_site_symmetry_multiplicity
 _atom_site_fract_x
 _atom_site_fract_y
 _atom_site_fract_z
 _atom_site_occupancy
  Zr  Zr0  1  0.75747900  0.00000000  0.75747900  1
  Zr  Zr1  1  0.00000000  0.75747900  0.75747900  1
  Zr  Zr2  1  0.24252100  0.00000000  0.24252100  1
  Zr  Zr3  1  0.00000000  0.24252100  0.24252100  1
  Zr  Zr4  1  0.24252100  0.24252100  0.00000000  1
  Zr  Zr5  1  0.75747900  0.75747900  0.00000000  1
  Ni  Ni6  1  0.00000000  0.00000000  0.00000000  1
  Cl  Cl7  1  0.50394900  0.75197400  0.75197400  1
  Cl  Cl8  1  0.24802600  0.49605100  0.24802600  1
  Cl  Cl9  1  0.00000000  0.75197400  0.24802600  1
  Cl  Cl10  1  0.24802600  0.00000000  0.75197400  1
  Cl  Cl11  1  0.75197400  0.00000000  0.24802600  1
  Cl  Cl12  1  0.75197400  0.50394900  0.75197400  1
  Cl  Cl13  1  0.24802600  0.75197400  0.00000000  1
  Cl  Cl14  1  0.75197400  0.24802600  0.00000000  1
  Cl  Cl15  1  0.00000000  0.24802600  0.75197400  1
  Cl  Cl16  1  0.50000000  0.50000000  0.00000000  1
  Cl  Cl17  1  0.75197400  0.75197400  0.50394900  1
  Cl  Cl18  1  0.50000000  0.00000000  0.50000000  1
  Cl  Cl19  1  0.24802600  0.24802600  0.49605100  1
  Cl  Cl20  1  0.49605100  0.24802600  0.24802600  1
  Cl  Cl21  1  0.00000000  0.50000000  0.50000000  1
