# generated using pymatgen
data_RbMgCl3
_symmetry_space_group_name_H-M   'P 1'
_cell_length_a   7.18400266
_cell_length_b   7.18400266
_cell_length_c   17.78743900
_cell_angle_alpha   90.00000000
_cell_angle_beta   90.00000000
_cell_angle_gamma   120.00000612
_symmetry_Int_Tables_number   1
_chemical_formula_structural   RbMgCl3
_chemical_formula_sum   'Rb6 Mg6 Cl18'
_cell_volume   795.01806678
_cell_formula_units_Z   6
loop_
 _symmetry_equiv_pos_site_id
 _symmetry_equiv_pos_as_xyz
  1  'x, y, z'
loop_
 _atom_site_type_symbol
 _atom_site_label
 _atom_site_symmetry_multiplicity
 _atom_site_fract_x
 _atom_site_fract_y
 _atom_site_fract_z
 _atom_site_occupancy
  Rb  Rb0  1  0.66666700  0.33333300  0.58943800  1
  Rb  Rb1  1  0.66666700  0.33333300  0.91056200  1
  Rb  Rb2  1  0.33333300  0.66666700  0.41056200  1
  Rb  Rb3  1  0.00000000  0.00000000  0.25000000  1
  Rb  Rb4  1  0.00000000  0.00000000  0.75000000  1
  Rb  Rb5  1  0.33333300  0.66666700  0.08943800  1
  Mg  Mg6  1  0.33333300  0.66666700  0.66006700  1
  Mg  Mg7  1  0.66666700  0.33333300  0.33993300  1
  Mg  Mg8  1  0.00000000  0.00000000  0.50000000  1
  Mg  Mg9  1  0.33333300  0.66666700  0.83993300  1
  Mg  Mg10  1  0.66666700  0.33333300  0.16006700  1
  Mg  Mg11  1  0.00000000  0.00000000  0.00000000  1
  Cl  Cl12  1  0.83400200  0.16599800  0.41840500  1
  Cl  Cl13  1  0.50861100  0.01722300  0.25000000  1
  Cl  Cl14  1  0.33199600  0.16599800  0.41840500  1
  Cl  Cl15  1  0.50861100  0.49138900  0.25000000  1
  Cl  Cl16  1  0.66800400  0.83400200  0.91840500  1
  Cl  Cl17  1  0.83400200  0.16599800  0.08159500  1
  Cl  Cl18  1  0.33199600  0.16599800  0.08159500  1
  Cl  Cl19  1  0.16599800  0.33199600  0.58159500  1
  Cl  Cl20  1  0.16599800  0.83400200  0.58159500  1
  Cl  Cl21  1  0.83400200  0.66800400  0.08159500  1
  Cl  Cl22  1  0.16599800  0.33199600  0.91840500  1
  Cl  Cl23  1  0.16599800  0.83400200  0.91840500  1
  Cl  Cl24  1  0.66800400  0.83400200  0.58159500  1
  Cl  Cl25  1  0.49138900  0.98277700  0.75000000  1
  Cl  Cl26  1  0.83400200  0.66800400  0.41840500  1
  Cl  Cl27  1  0.98277700  0.49138900  0.25000000  1
  Cl  Cl28  1  0.49138900  0.50861100  0.75000000  1
  Cl  Cl29  1  0.01722300  0.50861100  0.75000000  1
