# generated using pymatgen
data_BaB2F8
_symmetry_space_group_name_H-M   'P 1'
_cell_length_a   16.59428800
_cell_length_b   8.47906200
_cell_length_c   10.99416447
_cell_angle_alpha   64.60969988
_cell_angle_beta   90.00000000
_cell_angle_gamma   90.00000000
_symmetry_Int_Tables_number   1
_chemical_formula_structural   BaB2F8
_chemical_formula_sum   'Ba8 B16 F64'
_cell_volume   1397.50234756
_cell_formula_units_Z   8
loop_
 _symmetry_equiv_pos_site_id
 _symmetry_equiv_pos_as_xyz
  1  'x, y, z'
loop_
 _atom_site_type_symbol
 _atom_site_label
 _atom_site_symmetry_multiplicity
 _atom_site_fract_x
 _atom_site_fract_y
 _atom_site_fract_z
 _atom_site_occupancy
  Ba  Ba0  1  0.90406000  0.52131100  0.73633800  1
  Ba  Ba1  1  0.15717600  0.99945300  0.72592000  1
  Ba  Ba2  1  0.34282400  0.99945300  0.22592000  1
  Ba  Ba3  1  0.65717600  0.00054700  0.77408000  1
  Ba  Ba4  1  0.59594000  0.52131100  0.23633800  1
  Ba  Ba5  1  0.84282400  0.00054700  0.27408000  1
  Ba  Ba6  1  0.09594000  0.47868900  0.26366200  1
  Ba  Ba7  1  0.40406000  0.47868900  0.76366200  1
  B  B8  1  0.75435400  0.27905200  0.93461900  1
  B  B9  1  0.00885700  0.75994300  0.43707500  1
  B  B10  1  0.49114300  0.75994300  0.93707500  1
  B  B11  1  0.23737000  0.24709800  0.92966100  1
  B  B12  1  0.25435400  0.72094800  0.56538100  1
  B  B13  1  0.24564600  0.72094800  0.06538100  1
  B  B14  1  0.26263000  0.24709800  0.42966100  1
  B  B15  1  0.50885700  0.24005700  0.06292500  1
  B  B16  1  0.50741600  0.23891600  0.57538400  1
  B  B17  1  0.74564600  0.27905200  0.43461900  1
  B  B18  1  0.49258400  0.76108400  0.42461600  1
  B  B19  1  0.73737000  0.75290200  0.57033900  1
  B  B20  1  0.99258400  0.23891600  0.07538400  1
  B  B21  1  0.00741600  0.76108400  0.92461600  1
  B  B22  1  0.99114300  0.24005700  0.56292500  1
  B  B23  1  0.76263000  0.75290200  0.07033900  1
  F  F24  1  0.57095000  0.69124700  0.93204300  1
  F  F25  1  0.43846700  0.71741600  0.85507200  1
  F  F26  1  0.68487000  0.82812500  0.07800100  1
  F  F27  1  0.00088000  0.94033500  0.39189700  1
  F  F28  1  0.19288700  0.76068400  0.63692700  1
  F  F29  1  0.76279200  0.46021800  0.89049000  1
  F  F30  1  0.51947100  0.05926800  0.61520000  1
  F  F31  1  0.28747700  0.16443300  0.56612600  1
  F  F32  1  0.92905000  0.69124700  0.43204300  1
  F  F33  1  0.75056900  0.57452600  0.11246400  1
  F  F34  1  0.07095000  0.30875300  0.56795700  1
  F  F35  1  0.55717500  0.73113600  0.35162000  1
  F  F36  1  0.32970400  0.78580100  0.59201500  1
  F  F37  1  0.26279200  0.53978200  0.60951000  1
  F  F38  1  0.99233100  0.67279500  0.06474900  1
  F  F39  1  0.31749000  0.21257100  0.34592200  1
  F  F40  1  0.46619200  0.67861100  0.07371300  1
  F  F41  1  0.57996700  0.30696600  0.60719300  1
  F  F42  1  0.49912000  0.94033500  0.89189700  1
  F  F43  1  0.42905000  0.30875300  0.06795700  1
  F  F44  1  0.48052900  0.94073200  0.38480000  1
  F  F45  1  0.80711300  0.23931600  0.36307300  1
  F  F46  1  0.17029600  0.78580100  0.09201500  1
  F  F47  1  0.49233100  0.32720500  0.43525100  1
  F  F48  1  0.31513000  0.17187500  0.92199900  1
  F  F49  1  0.00766900  0.32720500  0.93525100  1
  F  F50  1  0.81513000  0.82812500  0.57800100  1
  F  F51  1  0.76149000  0.19434100  0.57512600  1
  F  F52  1  0.23851000  0.80565900  0.42487400  1
  F  F53  1  0.44282500  0.26886400  0.64838000  1
  F  F54  1  0.56153300  0.28258400  0.14492800  1
  F  F55  1  0.25056900  0.42547400  0.38753600  1
  F  F56  1  0.23720800  0.53978200  0.10951000  1
  F  F57  1  0.98052900  0.05926800  0.11520000  1
  F  F58  1  0.21252300  0.16443300  0.06612600  1
  F  F59  1  0.67029600  0.21419900  0.40798500  1
  F  F60  1  0.42003300  0.69303400  0.39280700  1
  F  F61  1  0.50088000  0.05966500  0.10810300  1
  F  F62  1  0.01947100  0.94073200  0.88480000  1
  F  F63  1  0.05717500  0.26886400  0.14838000  1
  F  F64  1  0.26149000  0.80565900  0.92487400  1
  F  F65  1  0.18251000  0.21257100  0.84592200  1
  F  F66  1  0.92003300  0.30696600  0.10719300  1
  F  F67  1  0.81749000  0.78742900  0.15407800  1
  F  F68  1  0.69288700  0.23931600  0.86307300  1
  F  F69  1  0.68251000  0.78742900  0.65407800  1
  F  F70  1  0.99912000  0.05966500  0.60810300  1
  F  F71  1  0.93846700  0.28258400  0.64492800  1
  F  F72  1  0.94282500  0.73113600  0.85162000  1
  F  F73  1  0.07996700  0.69303400  0.89280700  1
  F  F74  1  0.53380800  0.32138900  0.92628700  1
  F  F75  1  0.03380800  0.67861100  0.57371300  1
  F  F76  1  0.06153300  0.71741600  0.35507200  1
  F  F77  1  0.18487000  0.17187500  0.42199900  1
  F  F78  1  0.71252300  0.83556700  0.43387400  1
  F  F79  1  0.30711300  0.76068400  0.13692700  1
  F  F80  1  0.73851000  0.19434100  0.07512600  1
  F  F81  1  0.24943100  0.42547400  0.88753600  1
  F  F82  1  0.73720800  0.46021800  0.39049000  1
  F  F83  1  0.78747700  0.83556700  0.93387400  1
  F  F84  1  0.50766900  0.67279500  0.56474900  1
  F  F85  1  0.96619200  0.32138900  0.42628700  1
  F  F86  1  0.82970400  0.21419900  0.90798500  1
  F  F87  1  0.74943100  0.57452600  0.61246400  1
