# generated using pymatgen
data_CaBPO5
_symmetry_space_group_name_H-M   'P 1'
_cell_length_a   6.69802765
_cell_length_b   6.69802765
_cell_length_c   6.80428000
_cell_angle_alpha   90.00000000
_cell_angle_beta   90.00000000
_cell_angle_gamma   119.99999655
_symmetry_Int_Tables_number   1
_chemical_formula_structural   CaBPO5
_chemical_formula_sum   'Ca3 B3 P3 O15'
_cell_volume   264.36666699
_cell_formula_units_Z   3
loop_
 _symmetry_equiv_pos_site_id
 _symmetry_equiv_pos_as_xyz
  1  'x, y, z'
loop_
 _atom_site_type_symbol
 _atom_site_label
 _atom_site_symmetry_multiplicity
 _atom_site_fract_x
 _atom_site_fract_y
 _atom_site_fract_z
 _atom_site_occupancy
  Ca  Ca0  1  0.00000000  0.60207300  0.16666700  1
  Ca  Ca1  1  0.60207300  0.00000000  0.83333300  1
  Ca  Ca2  1  0.39792700  0.39792700  0.50000000  1
  B  B3  1  0.89823300  0.89823300  0.50000000  1
  B  B4  1  0.00000000  0.10176700  0.16666700  1
  B  B5  1  0.10176700  0.00000000  0.83333300  1
  P  P6  1  0.00000000  0.58243000  0.66666700  1
  P  P7  1  0.58243000  0.00000000  0.33333300  1
  P  P8  1  0.41757000  0.41757000  0.00000000  1
  O  O9  1  0.00000000  0.04657400  0.66666700  1
  O  O10  1  0.95342600  0.95342600  0.00000000  1
  O  O11  1  0.04657400  0.00000000  0.33333300  1
  O  O12  1  0.46488600  0.60290800  0.84935700  1
  O  O13  1  0.39709200  0.86197900  0.18269000  1
  O  O14  1  0.13802100  0.53511400  0.51602300  1
  O  O15  1  0.34896200  0.19224600  0.87236400  1
  O  O16  1  0.80775400  0.15671600  0.20569700  1
  O  O17  1  0.84328400  0.65103800  0.53903100  1
  O  O18  1  0.15671600  0.80775400  0.79430300  1
  O  O19  1  0.65103800  0.84328400  0.46096900  1
  O  O20  1  0.19224600  0.34896200  0.12763600  1
  O  O21  1  0.60290800  0.46488600  0.15064300  1
  O  O22  1  0.53511400  0.13802100  0.48397700  1
  O  O23  1  0.86197900  0.39709200  0.81731000  1
