# generated using pymatgen
data_Ba9(TaN6)2
_symmetry_space_group_name_H-M   'P 1'
_cell_length_a   8.17202400
_cell_length_b   9.79766982
_cell_length_c   12.90293551
_cell_angle_alpha   76.42709243
_cell_angle_beta   85.87703630
_cell_angle_gamma   87.87577885
_symmetry_Int_Tables_number   1
_chemical_formula_structural   Ba9(TaN6)2
_chemical_formula_sum   'Ba18 Ta4 N24'
_cell_volume   1001.42822031
_cell_formula_units_Z   2
loop_
 _symmetry_equiv_pos_site_id
 _symmetry_equiv_pos_as_xyz
  1  'x, y, z'
loop_
 _atom_site_type_symbol
 _atom_site_label
 _atom_site_symmetry_multiplicity
 _atom_site_fract_x
 _atom_site_fract_y
 _atom_site_fract_z
 _atom_site_occupancy
  Ba  Ba0  1  0.46803600  0.62110100  0.12732900  1
  Ba  Ba1  1  0.98890000  0.92939900  0.26766400  1
  Ba  Ba2  1  0.45722700  0.92448600  0.26444800  1
  Ba  Ba3  1  0.26577200  0.70150100  0.84831900  1
  Ba  Ba4  1  0.96135100  0.75137900  0.62551600  1
  Ba  Ba5  1  0.00836800  0.38149000  0.89171400  1
  Ba  Ba6  1  0.54277300  0.07551400  0.73555200  1
  Ba  Ba7  1  0.17287700  0.58435700  0.38050600  1
  Ba  Ba8  1  0.01110000  0.07060100  0.73233600  1
  Ba  Ba9  1  0.53196400  0.37889900  0.87267100  1
  Ba  Ba10  1  0.82712300  0.41564300  0.61949400  1
  Ba  Ba11  1  0.03864900  0.24862100  0.37448400  1
  Ba  Ba12  1  0.50222800  0.66707000  0.58072800  1
  Ba  Ba13  1  0.25657900  0.01472600  0.00185900  1
  Ba  Ba14  1  0.74342100  0.98527400  0.99814100  1
  Ba  Ba15  1  0.73422800  0.29849900  0.15168100  1
  Ba  Ba16  1  0.99163200  0.61851000  0.10828600  1
  Ba  Ba17  1  0.49777200  0.33293000  0.41927200  1
  Ta  Ta18  1  0.73060200  0.70215300  0.87840300  1
  Ta  Ta19  1  0.73062800  0.63637200  0.33861800  1
  Ta  Ta20  1  0.26937200  0.36362800  0.66138200  1
  Ta  Ta21  1  0.26939800  0.29784700  0.12159700  1
  N  N22  1  0.19617200  0.54800000  0.69295000  1
  N  N23  1  0.26226800  0.46784600  0.00435900  1
  N  N24  1  0.21428300  0.94621300  0.44769000  1
  N  N25  1  0.26105900  0.93726600  0.53458700  1
  N  N26  1  0.70926600  0.63634100  0.74501300  1
  N  N27  1  0.75353500  0.79177500  0.20939200  1
  N  N28  1  0.30282100  0.92438600  0.62262900  1
  N  N29  1  0.14810100  0.31957600  0.54634500  1
  N  N30  1  0.54273400  0.82768000  0.91208600  1
  N  N31  1  0.78473600  0.19782200  0.82032300  1
  N  N32  1  0.69717900  0.07561400  0.37737100  1
  N  N33  1  0.73773200  0.53215400  0.99564100  1
  N  N34  1  0.80382800  0.45200000  0.30705000  1
  N  N35  1  0.50393100  0.36831800  0.61959500  1
  N  N36  1  0.21526400  0.80217800  0.17967700  1
  N  N37  1  0.73894100  0.06273400  0.46541300  1
  N  N38  1  0.78571700  0.05378700  0.55231000  1
  N  N39  1  0.06201700  0.19699800  0.12718400  1
  N  N40  1  0.29073400  0.36365900  0.25498700  1
  N  N41  1  0.85189900  0.68042400  0.45365500  1
  N  N42  1  0.93798300  0.80300200  0.87281600  1
  N  N43  1  0.49606900  0.63168200  0.38040500  1
  N  N44  1  0.45726600  0.17232000  0.08791400  1
  N  N45  1  0.24646500  0.20822500  0.79060800  1
