# generated using pymatgen
data_CdI2
_symmetry_space_group_name_H-M   'P 1'
_cell_length_a   4.34631234
_cell_length_b   4.34631234
_cell_length_c   66.12582600
_cell_angle_alpha   90.00000000
_cell_angle_beta   90.00000000
_cell_angle_gamma   120.00000521
_symmetry_Int_Tables_number   1
_chemical_formula_structural   CdI2
_chemical_formula_sum   'Cd9 I18'
_cell_volume   1081.79155091
_cell_formula_units_Z   9
loop_
 _symmetry_equiv_pos_site_id
 _symmetry_equiv_pos_as_xyz
  1  'x, y, z'
loop_
 _atom_site_type_symbol
 _atom_site_label
 _atom_site_symmetry_multiplicity
 _atom_site_fract_x
 _atom_site_fract_y
 _atom_site_fract_z
 _atom_site_occupancy
  Cd  Cd0  1  0.33333300  0.66666700  0.91665800  1
  Cd  Cd1  1  0.33333300  0.66666700  0.36110300  1
  Cd  Cd2  1  0.33333300  0.66666700  0.80557600  1
  Cd  Cd3  1  0.33333300  0.66666700  0.02777700  1
  Cd  Cd4  1  0.33333300  0.66666700  0.47224400  1
  Cd  Cd5  1  0.33333300  0.66666700  0.69443400  1
  Cd  Cd6  1  0.00000000  0.00000000  0.13892300  1
  Cd  Cd7  1  0.33333300  0.66666700  0.58331600  1
  Cd  Cd8  1  0.33333300  0.66666700  0.24999000  1
  I  I9  1  0.00000000  0.00000000  0.22388800  1
  I  I10  1  0.66666700  0.33333300  0.27609800  1
  I  I11  1  0.66666700  0.33333300  0.72054700  1
  I  I12  1  0.00000000  0.00000000  0.77946900  1
  I  I13  1  0.00000000  0.00000000  0.44614000  1
  I  I14  1  0.00000000  0.00000000  0.66834200  1
  I  I15  1  0.66666700  0.33333300  0.83168900  1
  I  I16  1  0.66666700  0.33333300  0.16501700  1
  I  I17  1  0.66666700  0.33333300  0.60941500  1
  I  I18  1  0.66666700  0.33333300  0.05388600  1
  I  I19  1  0.33333300  0.66666700  0.11283700  1
  I  I20  1  0.00000000  0.00000000  0.55721700  1
  I  I21  1  0.66666700  0.33333300  0.38718700  1
  I  I22  1  0.66666700  0.33333300  0.94275500  1
  I  I23  1  0.00000000  0.00000000  0.33499900  1
  I  I24  1  0.00000000  0.00000000  0.00169700  1
  I  I25  1  0.66666700  0.33333300  0.49834600  1
  I  I26  1  0.00000000  0.00000000  0.89054900  1
