# generated using pymatgen
data_CdI2
_symmetry_space_group_name_H-M   'P 1'
_cell_length_a   4.34620617
_cell_length_b   4.34620617
_cell_length_c   80.82506000
_cell_angle_alpha   90.00000000
_cell_angle_beta   90.00000000
_cell_angle_gamma   120.00000256
_symmetry_Int_Tables_number   1
_chemical_formula_structural   CdI2
_chemical_formula_sum   'Cd11 I22'
_cell_volume   1322.20045958
_cell_formula_units_Z   11
loop_
 _symmetry_equiv_pos_site_id
 _symmetry_equiv_pos_as_xyz
  1  'x, y, z'
loop_
 _atom_site_type_symbol
 _atom_site_label
 _atom_site_symmetry_multiplicity
 _atom_site_fract_x
 _atom_site_fract_y
 _atom_site_fract_z
 _atom_site_occupancy
  Cd  Cd0  1  0.00000000  0.00000000  0.20453800  1
  Cd  Cd1  1  0.00000000  0.00000000  0.93181000  1
  Cd  Cd2  1  0.00000000  0.00000000  0.02273500  1
  Cd  Cd3  1  0.00000000  0.00000000  0.65907300  1
  Cd  Cd4  1  0.00000000  0.00000000  0.38639400  1
  Cd  Cd5  1  0.00000000  0.00000000  0.74999400  1
  Cd  Cd6  1  0.00000000  0.00000000  0.84090100  1
  Cd  Cd7  1  0.33333300  0.66666700  0.56819100  1
  Cd  Cd8  1  0.33333300  0.66666700  0.11363600  1
  Cd  Cd9  1  0.00000000  0.00000000  0.47727700  1
  Cd  Cd10  1  0.33333300  0.66666700  0.29545000  1
  I  I11  1  0.66666700  0.33333300  0.58956500  1
  I  I12  1  0.33333300  0.66666700  0.45588000  1
  I  I13  1  0.66666700  0.33333300  0.40778700  1
  I  I14  1  0.33333300  0.66666700  0.18315000  1
  I  I15  1  0.33333300  0.66666700  0.63767600  1
  I  I16  1  0.66666700  0.33333300  0.86229700  1
  I  I17  1  0.66666700  0.33333300  0.95320200  1
  I  I18  1  0.33333300  0.66666700  0.72858800  1
  I  I19  1  0.00000000  0.00000000  0.27407200  1
  I  I20  1  0.66666700  0.33333300  0.77138100  1
  I  I21  1  0.33333300  0.66666700  0.81951600  1
  I  I22  1  0.66666700  0.33333300  0.04413000  1
  I  I23  1  0.66666700  0.33333300  0.22592600  1
  I  I24  1  0.00000000  0.00000000  0.09223900  1
  I  I25  1  0.33333300  0.66666700  0.91039200  1
  I  I26  1  0.33333300  0.66666700  0.00136800  1
  I  I27  1  0.66666700  0.33333300  0.31686400  1
  I  I28  1  0.00000000  0.00000000  0.54680700  1
  I  I29  1  0.33333300  0.66666700  0.36499800  1
  I  I30  1  0.66666700  0.33333300  0.68046600  1
  I  I31  1  0.66666700  0.33333300  0.13503500  1
  I  I32  1  0.66666700  0.33333300  0.49866100  1
