# generated using pymatgen
data_Gd2Se2O
_symmetry_space_group_name_H-M   'P 1'
_cell_length_a   3.97490800
_cell_length_b   7.10299500
_cell_length_c   16.26515100
_cell_angle_alpha   90.00000000
_cell_angle_beta   90.00000000
_cell_angle_gamma   90.00000000
_symmetry_Int_Tables_number   1
_chemical_formula_structural   Gd2Se2O
_chemical_formula_sum   'Gd8 Se8 O4'
_cell_volume   459.22623387
_cell_formula_units_Z   4
loop_
 _symmetry_equiv_pos_site_id
 _symmetry_equiv_pos_as_xyz
  1  'x, y, z'
loop_
 _atom_site_type_symbol
 _atom_site_label
 _atom_site_symmetry_multiplicity
 _atom_site_fract_x
 _atom_site_fract_y
 _atom_site_fract_z
 _atom_site_occupancy
  Gd  Gd0  1  0.25000000  0.69810700  0.03842600  1
  Gd  Gd1  1  0.75000000  0.74069900  0.83868300  1
  Gd  Gd2  1  0.25000000  0.24069900  0.66131700  1
  Gd  Gd3  1  0.25000000  0.25930100  0.16131700  1
  Gd  Gd4  1  0.25000000  0.80189300  0.53842600  1
  Gd  Gd5  1  0.75000000  0.75930100  0.33868300  1
  Gd  Gd6  1  0.75000000  0.30189300  0.96157400  1
  Gd  Gd7  1  0.75000000  0.19810700  0.46157400  1
  Se  Se8  1  0.75000000  0.55173600  0.17992400  1
  Se  Se9  1  0.75000000  0.49015500  0.59990300  1
  Se  Se10  1  0.25000000  0.44826400  0.82007600  1
  Se  Se11  1  0.75000000  0.00984500  0.09990300  1
  Se  Se12  1  0.25000000  0.05173600  0.32007600  1
  Se  Se13  1  0.25000000  0.99015500  0.90009700  1
  Se  Se14  1  0.75000000  0.94826400  0.67992400  1
  Se  Se15  1  0.25000000  0.50984500  0.40009700  1
  O  O16  1  0.25000000  0.12849400  0.53074200  1
  O  O17  1  0.75000000  0.87150600  0.46925800  1
  O  O18  1  0.75000000  0.62849400  0.96925800  1
  O  O19  1  0.25000000  0.37150600  0.03074200  1
