# generated using pymatgen
data_Cu2Bi8Pb6S19
_symmetry_space_group_name_H-M   'P 1'
_cell_length_a   4.06316900
_cell_length_b   14.20571800
_cell_length_c   15.94226980
_cell_angle_alpha   89.35175689
_cell_angle_beta   97.28123422
_cell_angle_gamma   98.19691767
_symmetry_Int_Tables_number   1
_chemical_formula_structural   Cu2Bi8Pb6S19
_chemical_formula_sum   'Cu2 Bi8 Pb6 S19'
_cell_volume   903.42475832
_cell_formula_units_Z   1
loop_
 _symmetry_equiv_pos_site_id
 _symmetry_equiv_pos_as_xyz
  1  'x, y, z'
loop_
 _atom_site_type_symbol
 _atom_site_label
 _atom_site_symmetry_multiplicity
 _atom_site_fract_x
 _atom_site_fract_y
 _atom_site_fract_z
 _atom_site_occupancy
  Cu  Cu0  1  0.54577700  0.98837300  0.09065700  1
  Cu  Cu1  1  0.45422300  0.01162700  0.90934300  1
  Bi  Bi2  1  0.89730400  0.75367800  0.04474400  1
  Bi  Bi3  1  0.29327600  0.13615700  0.46137600  1
  Bi  Bi4  1  0.09086800  0.89692900  0.29330100  1
  Bi  Bi5  1  0.70672400  0.86384300  0.53862400  1
  Bi  Bi6  1  0.90913200  0.10307100  0.70669900  1
  Bi  Bi7  1  0.10269600  0.24632200  0.95525600  1
  Bi  Bi8  1  0.77911700  0.45389700  0.10495800  1
  Bi  Bi9  1  0.22088300  0.54610300  0.89504200  1
  Pb  Pb10  1  0.68423200  0.15998300  0.22129700  1
  Pb  Pb11  1  0.31576800  0.84001700  0.77870300  1
  Pb  Pb12  1  0.09913200  0.60820500  0.59281500  1
  Pb  Pb13  1  0.50788300  0.36378400  0.65422400  1
  Pb  Pb14  1  0.49211700  0.63621600  0.34577600  1
  Pb  Pb15  1  0.90086800  0.39179500  0.40718500  1
  S  S16  1  0.50414900  0.79128400  0.22383000  1
  S  S17  1  0.30392500  0.97701800  0.62474100  1
  S  S18  1  0.09067900  0.01314500  0.16174100  1
  S  S19  1  0.11275500  0.76596200  0.45370200  1
  S  S20  1  0.90932100  0.98685500  0.83825900  1
  S  S21  1  0.88724500  0.23403800  0.54629800  1
  S  S22  1  0.32711200  0.58890700  0.06674700  1
  S  S23  1  0.90397400  0.52644600  0.27304700  1
  S  S24  1  0.09602600  0.47355400  0.72695300  1
  S  S25  1  0.49585100  0.20871600  0.77617000  1
  S  S26  1  0.56774800  0.13323100  0.00667400  1
  S  S27  1  0.21165700  0.31080800  0.11464000  1
  S  S28  1  0.29246700  0.25465700  0.33344500  1
  S  S29  1  0.50000000  0.50000000  0.50000000  1
  S  S30  1  0.43225200  0.86676900  0.99332600  1
  S  S31  1  0.69607500  0.02298200  0.37525900  1
  S  S32  1  0.67288800  0.41109300  0.93325300  1
  S  S33  1  0.70753300  0.74534300  0.66655500  1
  S  S34  1  0.78834300  0.68919200  0.88536000  1
