# generated using pymatgen
data_HgS4(NCl)3
_symmetry_space_group_name_H-M   'P 1'
_cell_length_a   17.72675500
_cell_length_b   6.37405500
_cell_length_c   10.01621688
_cell_angle_alpha   73.28094350
_cell_angle_beta   90.00000000
_cell_angle_gamma   90.00000000
_symmetry_Int_Tables_number   1
_chemical_formula_structural   HgS4(NCl)3
_chemical_formula_sum   'Hg4 S16 N12 Cl12'
_cell_volume   1083.90305144
_cell_formula_units_Z   4
loop_
 _symmetry_equiv_pos_site_id
 _symmetry_equiv_pos_as_xyz
  1  'x, y, z'
loop_
 _atom_site_type_symbol
 _atom_site_label
 _atom_site_symmetry_multiplicity
 _atom_site_fract_x
 _atom_site_fract_y
 _atom_site_fract_z
 _atom_site_occupancy
  Hg  Hg0  1  0.57237400  0.21080800  0.55595000  1
  Hg  Hg1  1  0.42762600  0.78919200  0.44405000  1
  Hg  Hg2  1  0.92762600  0.21080800  0.05595000  1
  Hg  Hg3  1  0.07237400  0.78919200  0.94405000  1
  S  S4  1  0.54701400  0.70085200  0.09811600  1
  S  S5  1  0.73622300  0.65589600  0.52766700  1
  S  S6  1  0.04701400  0.29914800  0.40188400  1
  S  S7  1  0.45298600  0.29914800  0.90188400  1
  S  S8  1  0.82287400  0.92604300  0.67895800  1
  S  S9  1  0.95298600  0.70085200  0.59811600  1
  S  S10  1  0.17712600  0.07395700  0.32104200  1
  S  S11  1  0.82998600  0.49998700  0.46483000  1
  S  S12  1  0.26377700  0.34410400  0.47233300  1
  S  S13  1  0.23622300  0.34410400  0.97233300  1
  S  S14  1  0.67001400  0.49998700  0.96483000  1
  S  S15  1  0.76377700  0.65589600  0.02766700  1
  S  S16  1  0.17001400  0.50001300  0.53517000  1
  S  S17  1  0.32998600  0.50001300  0.03517000  1
  S  S18  1  0.32287400  0.07395700  0.82104200  1
  S  S19  1  0.67712600  0.92604300  0.17895800  1
  N  N20  1  0.09281100  0.43271300  0.48134900  1
  N  N21  1  0.90718900  0.56728700  0.51865100  1
  N  N22  1  0.59196000  0.86090200  0.16471300  1
  N  N23  1  0.73906200  0.81954100  0.10995600  1
  N  N24  1  0.76093800  0.81954100  0.60995600  1
  N  N25  1  0.23906200  0.18045900  0.39004400  1
  N  N26  1  0.59281100  0.56728700  0.01865100  1
  N  N27  1  0.26093800  0.18045900  0.89004400  1
  N  N28  1  0.09196000  0.13909800  0.33528700  1
  N  N29  1  0.40718900  0.43271300  0.98134900  1
  N  N30  1  0.40804000  0.13909800  0.83528700  1
  N  N31  1  0.90804000  0.86090200  0.66471300  1
  Cl  Cl32  1  0.32252100  0.66153500  0.62806800  1
  Cl  Cl33  1  0.45162700  0.27483500  0.43245300  1
  Cl  Cl34  1  0.87642900  0.11569100  0.28949200  1
  Cl  Cl35  1  0.95162700  0.72516500  0.06754700  1
  Cl  Cl36  1  0.67747900  0.33846500  0.37193200  1
  Cl  Cl37  1  0.12357100  0.88430900  0.71050800  1
  Cl  Cl38  1  0.04837300  0.27483500  0.93245300  1
  Cl  Cl39  1  0.17747900  0.66153500  0.12806800  1
  Cl  Cl40  1  0.54837300  0.72516500  0.56754700  1
  Cl  Cl41  1  0.82252100  0.33846500  0.87193200  1
  Cl  Cl42  1  0.37642900  0.88430900  0.21050800  1
  Cl  Cl43  1  0.62357100  0.11569100  0.78949200  1
