# generated using pymatgen
data_K2Pt(NO2)4
_symmetry_space_group_name_H-M   'P 1'
_cell_length_a   13.51016500
_cell_length_b   8.13768200
_cell_length_c   9.97319630
_cell_angle_alpha   88.96399788
_cell_angle_beta   90.00000000
_cell_angle_gamma   90.00000000
_symmetry_Int_Tables_number   1
_chemical_formula_structural   K2Pt(NO2)4
_chemical_formula_sum   'K8 Pt4 N16 O32'
_cell_volume   1096.28819085
_cell_formula_units_Z   4
loop_
 _symmetry_equiv_pos_site_id
 _symmetry_equiv_pos_as_xyz
  1  'x, y, z'
loop_
 _atom_site_type_symbol
 _atom_site_label
 _atom_site_symmetry_multiplicity
 _atom_site_fract_x
 _atom_site_fract_y
 _atom_site_fract_z
 _atom_site_occupancy
  K  K0  1  0.82608000  0.63045200  0.24512900  1
  K  K1  1  0.85175700  0.47769300  0.72125600  1
  K  K2  1  0.64824300  0.97769300  0.72125600  1
  K  K3  1  0.32608000  0.86954800  0.75487100  1
  K  K4  1  0.35175700  0.02230700  0.27874400  1
  K  K5  1  0.67392000  0.13045200  0.24512900  1
  K  K6  1  0.14824300  0.52230700  0.27874400  1
  K  K7  1  0.17392000  0.36954800  0.75487100  1
  Pt  Pt8  1  0.50000000  0.50000000  0.50000000  1
  Pt  Pt9  1  0.00000000  0.00000000  0.00000000  1
  Pt  Pt10  1  0.50000000  0.50000000  0.00000000  1
  Pt  Pt11  1  0.00000000  0.00000000  0.50000000  1
  N  N12  1  0.48229300  0.73482800  0.93285800  1
  N  N13  1  0.85328200  0.99913700  0.94107500  1
  N  N14  1  0.35692800  0.50546100  0.56555800  1
  N  N15  1  0.47656000  0.73468300  0.42884700  1
  N  N16  1  0.85692800  0.99453900  0.43444200  1
  N  N17  1  0.64307200  0.49453900  0.43444200  1
  N  N18  1  0.98229300  0.76517200  0.06714200  1
  N  N19  1  0.51770700  0.26517200  0.06714200  1
  N  N20  1  0.35328200  0.50086300  0.05892500  1
  N  N21  1  0.14671800  0.00086300  0.05892500  1
  N  N22  1  0.01770700  0.23482800  0.93285800  1
  N  N23  1  0.64671800  0.49913700  0.94107500  1
  N  N24  1  0.52344000  0.26531700  0.57115300  1
  N  N25  1  0.14307200  0.00546100  0.56555800  1
  N  N26  1  0.97656000  0.76531700  0.57115300  1
  N  N27  1  0.02344000  0.23468300  0.42884700  1
  O  O28  1  0.71447800  0.47123500  0.02494900  1
  O  O29  1  0.43241900  0.83405400  0.50345600  1
  O  O30  1  0.84091300  0.95919200  0.31407100  1
  O  O31  1  0.21465900  0.97885200  0.48938400  1
  O  O32  1  0.06935300  0.33339400  0.99797500  1
  O  O33  1  0.16763900  0.97771700  0.18028000  1
  O  O34  1  0.99868100  0.27842600  0.31270500  1
  O  O35  1  0.93064700  0.66660600  0.00202500  1
  O  O36  1  0.66763900  0.52228300  0.81972000  1
  O  O37  1  0.50131900  0.77842600  0.31270500  1
  O  O38  1  0.06758100  0.33405400  0.50345600  1
  O  O39  1  0.48354700  0.22103900  0.17984200  1
  O  O40  1  0.56935300  0.16660600  0.00202500  1
  O  O41  1  0.21447800  0.02876500  0.97505100  1
  O  O42  1  0.93241900  0.66594600  0.49654400  1
  O  O43  1  0.28552200  0.52876500  0.97505100  1
  O  O44  1  0.01645300  0.72103900  0.17984200  1
  O  O45  1  0.15908700  0.04080800  0.68592900  1
  O  O46  1  0.34091300  0.54080800  0.68592900  1
  O  O47  1  0.00131900  0.72157400  0.68729500  1
  O  O48  1  0.83236100  0.02228300  0.81972000  1
  O  O49  1  0.56758100  0.16594600  0.49654400  1
  O  O50  1  0.43064700  0.83339400  0.99797500  1
  O  O51  1  0.51645300  0.77896100  0.82015800  1
  O  O52  1  0.78534100  0.02114800  0.51061600  1
  O  O53  1  0.65908700  0.45919200  0.31407100  1
  O  O54  1  0.71465900  0.52114800  0.51061600  1
  O  O55  1  0.98354700  0.27896100  0.82015800  1
  O  O56  1  0.78552200  0.97123500  0.02494900  1
  O  O57  1  0.49868100  0.22157400  0.68729500  1
  O  O58  1  0.33236100  0.47771700  0.18028000  1
  O  O59  1  0.28534100  0.47885200  0.48938400  1
