# generated using pymatgen
data_Na2UO4
_symmetry_space_group_name_H-M   'P 1'
_cell_length_a   5.92911100
_cell_length_b   5.97754500
_cell_length_c   12.20275900
_cell_angle_alpha   90.00000000
_cell_angle_beta   90.00000000
_cell_angle_gamma   90.00000000
_symmetry_Int_Tables_number   1
_chemical_formula_structural   Na2UO4
_chemical_formula_sum   'Na8 U4 O16'
_cell_volume   432.48442249
_cell_formula_units_Z   4
loop_
 _symmetry_equiv_pos_site_id
 _symmetry_equiv_pos_as_xyz
  1  'x, y, z'
loop_
 _atom_site_type_symbol
 _atom_site_label
 _atom_site_symmetry_multiplicity
 _atom_site_fract_x
 _atom_site_fract_y
 _atom_site_fract_z
 _atom_site_occupancy
  Na  Na0  1  0.52662000  0.47102500  0.65709900  1
  Na  Na1  1  0.52662000  0.02897500  0.84290100  1
  Na  Na2  1  0.02662000  0.47102500  0.84290100  1
  Na  Na3  1  0.47338000  0.97102500  0.15709900  1
  Na  Na4  1  0.02662000  0.02897500  0.65709900  1
  Na  Na5  1  0.47338000  0.52897500  0.34290100  1
  Na  Na6  1  0.97338000  0.97102500  0.34290100  1
  Na  Na7  1  0.97338000  0.52897500  0.15709900  1
  U  U8  1  0.50000000  0.50000000  0.00000000  1
  U  U9  1  0.00000000  0.00000000  0.00000000  1
  U  U10  1  0.00000000  0.50000000  0.50000000  1
  U  U11  1  0.50000000  0.00000000  0.50000000  1
  O  O12  1  0.80761300  0.81075700  0.52759900  1
  O  O13  1  0.47296900  0.43128200  0.84499400  1
  O  O14  1  0.30761300  0.68924300  0.52759900  1
  O  O15  1  0.19238700  0.31075700  0.02759900  1
  O  O16  1  0.52703100  0.93128200  0.34499400  1
  O  O17  1  0.47296900  0.06871800  0.65500600  1
  O  O18  1  0.69238700  0.18924300  0.02759900  1
  O  O19  1  0.19238700  0.18924300  0.47240100  1
  O  O20  1  0.02703100  0.56871800  0.34499400  1
  O  O21  1  0.69238700  0.31075700  0.47240100  1
  O  O22  1  0.30761300  0.81075700  0.97240100  1
  O  O23  1  0.02703100  0.93128200  0.15500600  1
  O  O24  1  0.97296900  0.43128200  0.65500600  1
  O  O25  1  0.80761300  0.68924300  0.97240100  1
  O  O26  1  0.52703100  0.56871800  0.15500600  1
  O  O27  1  0.97296900  0.06871800  0.84499400  1
