# generated using pymatgen
data_La3Zn3Ge2SbO14
_symmetry_space_group_name_H-M   'P 1'
_cell_length_a   8.40304574
_cell_length_b   8.40304574
_cell_length_c   5.28652600
_cell_angle_alpha   90.00000000
_cell_angle_beta   90.00000000
_cell_angle_gamma   119.99999792
_symmetry_Int_Tables_number   1
_chemical_formula_structural   La3Zn3Ge2SbO14
_chemical_formula_sum   'La3 Zn3 Ge2 Sb1 O14'
_cell_volume   323.27674742
_cell_formula_units_Z   1
loop_
 _symmetry_equiv_pos_site_id
 _symmetry_equiv_pos_as_xyz
  1  'x, y, z'
loop_
 _atom_site_type_symbol
 _atom_site_label
 _atom_site_symmetry_multiplicity
 _atom_site_fract_x
 _atom_site_fract_y
 _atom_site_fract_z
 _atom_site_occupancy
  La  La0  1  0.41990400  0.00000000  0.00000000  1
  La  La1  1  0.00000000  0.41990400  0.00000000  1
  La  La2  1  0.58009600  0.58009600  0.00000000  1
  Zn  Zn3  1  0.76057500  0.00000000  0.50000000  1
  Zn  Zn4  1  0.00000000  0.76057500  0.50000000  1
  Zn  Zn5  1  0.23942500  0.23942500  0.50000000  1
  Ge  Ge6  1  0.66666700  0.33333300  0.44843200  1
  Ge  Ge7  1  0.33333300  0.66666700  0.55156800  1
  Sb  Sb8  1  0.00000000  0.00000000  0.00000000  1
  O  O9  1  0.47186000  0.32624400  0.29584500  1
  O  O10  1  0.08134800  0.22299800  0.22038900  1
  O  O11  1  0.66666700  0.33333300  0.78218500  1
  O  O12  1  0.85438400  0.52814000  0.29584500  1
  O  O13  1  0.33333300  0.66666700  0.21781500  1
  O  O14  1  0.85834900  0.77700200  0.77961100  1
  O  O15  1  0.32624400  0.47186000  0.70415500  1
  O  O16  1  0.14165100  0.91865200  0.22038900  1
  O  O17  1  0.14561600  0.67375600  0.70415500  1
  O  O18  1  0.67375600  0.14561600  0.29584500  1
  O  O19  1  0.22299800  0.08134800  0.77961100  1
  O  O20  1  0.52814000  0.85438400  0.70415500  1
  O  O21  1  0.91865200  0.14165100  0.77961100  1
  O  O22  1  0.77700200  0.85834900  0.22038900  1
