# generated using pymatgen
data_Sr4GaCN5
_symmetry_space_group_name_H-M   'P 1'
_cell_length_a   7.47601000
_cell_length_b   7.50334800
_cell_length_c   13.59038560
_cell_angle_alpha   81.88456762
_cell_angle_beta   90.00000000
_cell_angle_gamma   90.00000000
_symmetry_Int_Tables_number   1
_chemical_formula_structural   Sr4GaCN5
_chemical_formula_sum   'Sr16 Ga4 C4 N20'
_cell_volume   754.71963768
_cell_formula_units_Z   4
loop_
 _symmetry_equiv_pos_site_id
 _symmetry_equiv_pos_as_xyz
  1  'x, y, z'
loop_
 _atom_site_type_symbol
 _atom_site_label
 _atom_site_symmetry_multiplicity
 _atom_site_fract_x
 _atom_site_fract_y
 _atom_site_fract_z
 _atom_site_occupancy
  Sr  Sr0  1  0.75208300  0.99350300  0.98722000  1
  Sr  Sr1  1  0.84484200  0.16709800  0.66819300  1
  Sr  Sr2  1  0.02063800  0.78475100  0.81919600  1
  Sr  Sr3  1  0.32140700  0.01507500  0.64660600  1
  Sr  Sr4  1  0.17859300  0.51507500  0.64660600  1
  Sr  Sr5  1  0.74791700  0.49350300  0.98722000  1
  Sr  Sr6  1  0.15515800  0.83290200  0.33180700  1
  Sr  Sr7  1  0.24791700  0.00649700  0.01278000  1
  Sr  Sr8  1  0.82140700  0.48492500  0.35339400  1
  Sr  Sr9  1  0.65515800  0.66709800  0.66819300  1
  Sr  Sr10  1  0.47936200  0.28475100  0.81919600  1
  Sr  Sr11  1  0.52063800  0.71524900  0.18080400  1
  Sr  Sr12  1  0.97936200  0.21524900  0.18080400  1
  Sr  Sr13  1  0.34484200  0.33290200  0.33180700  1
  Sr  Sr14  1  0.67859300  0.98492500  0.35339400  1
  Sr  Sr15  1  0.25208300  0.50649700  0.01278000  1
  Ga  Ga16  1  0.51363800  0.20918800  0.14539100  1
  Ga  Ga17  1  0.01363800  0.29081200  0.85460900  1
  Ga  Ga18  1  0.48636200  0.79081200  0.85460900  1
  Ga  Ga19  1  0.98636200  0.70918800  0.14539100  1
  C  C20  1  0.55224000  0.29482900  0.54595700  1
  C  C21  1  0.44776000  0.70517100  0.45404300  1
  C  C22  1  0.94776000  0.79482900  0.54595700  1
  C  C23  1  0.05224000  0.20517100  0.45404300  1
  N  N24  1  0.65539200  0.35907900  0.21831000  1
  N  N25  1  0.50344400  0.35791200  0.62142300  1
  N  N26  1  0.10585300  0.28015500  0.52368400  1
  N  N27  1  0.89414700  0.71984500  0.47631600  1
  N  N28  1  0.49655600  0.64208800  0.37857700  1
  N  N29  1  0.99612700  0.74342900  0.00365600  1
  N  N30  1  0.50387200  0.24342900  0.00365600  1
  N  N31  1  0.00387300  0.25657100  0.99634400  1
  N  N32  1  0.60585300  0.21984500  0.47631600  1
  N  N33  1  0.64265100  0.95761500  0.77483600  1
  N  N34  1  0.34460800  0.64092100  0.78169000  1
  N  N35  1  0.84460800  0.85907900  0.21831000  1
  N  N36  1  0.99655600  0.85791200  0.62142300  1
  N  N37  1  0.14265100  0.54238500  0.22516400  1
  N  N38  1  0.15539200  0.14092100  0.78169000  1
  N  N39  1  0.35734900  0.04238500  0.22516400  1
  N  N40  1  0.49612700  0.75657100  0.99634400  1
  N  N41  1  0.39414700  0.78015500  0.52368400  1
  N  N42  1  0.00344400  0.14208800  0.37857700  1
  N  N43  1  0.85734900  0.45761500  0.77483600  1
