# generated using pymatgen
data_In4(SnO4)3
_symmetry_space_group_name_H-M   'P 1'
_cell_length_a   6.30976200
_cell_length_b   6.33863206
_cell_length_c   12.62128075
_cell_angle_alpha   99.44980173
_cell_angle_beta   99.37345633
_cell_angle_gamma   99.26330734
_symmetry_Int_Tables_number   1
_chemical_formula_structural   In4(SnO4)3
_chemical_formula_sum   'In8 Sn6 O24'
_cell_volume   482.06831241
_cell_formula_units_Z   2
loop_
 _symmetry_equiv_pos_site_id
 _symmetry_equiv_pos_as_xyz
  1  'x, y, z'
loop_
 _atom_site_type_symbol
 _atom_site_label
 _atom_site_symmetry_multiplicity
 _atom_site_fract_x
 _atom_site_fract_y
 _atom_site_fract_z
 _atom_site_occupancy
  In  In0  1  0.39704300  0.86381000  0.84647700  1
  In  In1  1  0.30939500  0.60155600  0.06653600  1
  In  In2  1  0.85982400  0.68790700  0.19759500  1
  In  In3  1  0.31330000  0.60504800  0.56929900  1
  In  In4  1  0.69061800  0.39617900  0.43316000  1
  In  In5  1  0.13788800  0.31070500  0.80174300  1
  In  In6  1  0.60237600  0.13421000  0.15334200  1
  In  In7  1  0.60326600  0.13483000  0.65657500  1
  Sn  Sn8  1  0.39621200  0.86437100  0.34487100  1
  Sn  Sn9  1  0.00189900  0.99943600  0.50069100  1
  Sn  Sn10  1  0.00101000  0.00089600  0.99897300  1
  Sn  Sn11  1  0.86165300  0.68520500  0.69883500  1
  Sn  Sn12  1  0.13296500  0.31618000  0.30041700  1
  Sn  Sn13  1  0.68592000  0.39840200  0.93180400  1
  O  O14  1  0.31204500  0.93779800  0.04242100  1
  O  O15  1  0.06782400  0.90222500  0.34349000  1
  O  O16  1  0.31725500  0.94271000  0.54210500  1
  O  O17  1  0.57520800  0.82584400  0.21615500  1
  O  O18  1  0.04830900  0.90335400  0.83890900  1
  O  O19  1  0.90051500  0.68473300  0.02621300  1
  O  O20  1  0.58794300  0.81694900  0.70972000  1
  O  O21  1  0.17998100  0.57565300  0.21222500  1
  O  O22  1  0.41050500  0.58278800  0.40623700  1
  O  O23  1  0.90652500  0.69062400  0.53405800  1
  O  O24  1  0.16589500  0.58285600  0.70788500  1
  O  O25  1  0.58599800  0.41990600  0.08642200  1
  O  O26  1  0.42991700  0.57846400  0.90986700  1
  O  O27  1  0.82516300  0.41241100  0.29096800  1
  O  O28  1  0.09399900  0.31022000  0.46437700  1
  O  O29  1  0.59356300  0.42434300  0.59168900  1
  O  O30  1  0.82019300  0.43244700  0.79525800  1
  O  O31  1  0.40544500  0.17607300  0.29344700  1
  O  O32  1  0.08553100  0.31436600  0.96994900  1
  O  O33  1  0.95045400  0.09207000  0.16082900  1
  O  O34  1  0.42879200  0.18079700  0.79645600  1
  O  O35  1  0.68277600  0.04823700  0.44800900  1
  O  O36  1  0.94229700  0.09505400  0.65580500  1
  O  O37  1  0.69050000  0.07134200  0.95718700  1
