# generated using pymatgen
data_Lu4Zr3O12
_symmetry_space_group_name_H-M   'P 1'
_cell_length_a   6.34368300
_cell_length_b   6.34642869
_cell_length_c   12.68640752
_cell_angle_alpha   99.15518455
_cell_angle_beta   99.42754233
_cell_angle_gamma   99.42869321
_symmetry_Int_Tables_number   1
_chemical_formula_structural   Lu4Zr3O12
_chemical_formula_sum   'Lu8 Zr6 O24'
_cell_volume   487.88863076
_cell_formula_units_Z   2
loop_
 _symmetry_equiv_pos_site_id
 _symmetry_equiv_pos_as_xyz
  1  'x, y, z'
loop_
 _atom_site_type_symbol
 _atom_site_label
 _atom_site_symmetry_multiplicity
 _atom_site_fract_x
 _atom_site_fract_y
 _atom_site_fract_z
 _atom_site_occupancy
  Lu  Lu0  1  0.39101700  0.86185700  0.09661600  1
  Lu  Lu1  1  0.31213800  0.60898100  0.81973100  1
  Lu  Lu2  1  0.30503300  0.61084200  0.31992800  1
  Lu  Lu3  1  0.85933800  0.68854100  0.44537600  1
  Lu  Lu4  1  0.68786200  0.39101900  0.18026900  1
  Lu  Lu5  1  0.14066200  0.31145900  0.55462400  1
  Lu  Lu6  1  0.60898300  0.13814300  0.90338400  1
  Lu  Lu7  1  0.69496700  0.38915800  0.68007200  1
  Zr  Zr8  1  0.99564700  0.99435400  0.24880200  1
  Zr  Zr9  1  0.38748200  0.85720200  0.59464400  1
  Zr  Zr10  1  0.00435300  0.00564600  0.75119800  1
  Zr  Zr11  1  0.85699900  0.68463200  0.94388600  1
  Zr  Zr12  1  0.14300100  0.31536800  0.05611400  1
  Zr  Zr13  1  0.61251800  0.14279800  0.40535600  1
  O  O14  1  0.32073700  0.94214400  0.78664600  1
  O  O15  1  0.04755800  0.91172300  0.08832400  1
  O  O16  1  0.32112800  0.95462800  0.29477900  1
  O  O17  1  0.06745400  0.91904700  0.59125800  1
  O  O18  1  0.58412900  0.82028500  0.96291200  1
  O  O19  1  0.92076200  0.68502700  0.78596400  1
  O  O20  1  0.17393100  0.57583000  0.96502800  1
  O  O21  1  0.57174000  0.82755900  0.46303200  1
  O  O22  1  0.92175200  0.67933100  0.27795200  1
  O  O23  1  0.41046500  0.56742200  0.15906700  1
  O  O24  1  0.18267200  0.58965700  0.46746200  1
  O  O25  1  0.58953500  0.43257800  0.84093300  1
  O  O26  1  0.42422000  0.57993400  0.65947500  1
  O  O27  1  0.82606900  0.42417000  0.03497200  1
  O  O28  1  0.57578000  0.42006600  0.34052500  1
  O  O29  1  0.07923800  0.31497300  0.21403600  1
  O  O30  1  0.41587100  0.17971500  0.03708800  1
  O  O31  1  0.81732800  0.41034300  0.53253800  1
  O  O32  1  0.07824800  0.32066900  0.72204800  1
  O  O33  1  0.42826000  0.17244100  0.53696800  1
  O  O34  1  0.95244200  0.08827700  0.91167600  1
  O  O35  1  0.67926300  0.05785600  0.21335400  1
  O  O36  1  0.93254600  0.08095300  0.40874200  1
  O  O37  1  0.67887200  0.04537200  0.70522100  1
