# generated using pymatgen
data_Ca3NdF9
_symmetry_space_group_name_H-M   'P 1'
_cell_length_a   3.91903000
_cell_length_b   3.93033806
_cell_length_c   26.89399297
_cell_angle_alpha   86.09246932
_cell_angle_beta   86.04683974
_cell_angle_gamma   60.30392809
_symmetry_Int_Tables_number   1
_chemical_formula_structural   Ca3NdF9
_chemical_formula_sum   'Ca6 Nd2 F18'
_cell_volume   358.71326783
_cell_formula_units_Z   2
loop_
 _symmetry_equiv_pos_site_id
 _symmetry_equiv_pos_as_xyz
  1  'x, y, z'
loop_
 _atom_site_type_symbol
 _atom_site_label
 _atom_site_symmetry_multiplicity
 _atom_site_fract_x
 _atom_site_fract_y
 _atom_site_fract_z
 _atom_site_occupancy
  Ca  Ca0  1  0.97237000  0.96328700  0.01578800  1
  Ca  Ca1  1  0.60929400  0.57175900  0.13895100  1
  Ca  Ca2  1  0.24686400  0.21392600  0.25677800  1
  Ca  Ca3  1  0.87367400  0.86527000  0.37685600  1
  Ca  Ca4  1  0.50388000  0.51330500  0.49690900  1
  Ca  Ca5  1  0.32817900  0.38081700  0.89192700  1
  Nd  Nd6  1  0.13277500  0.14896800  0.62629400  1
  Nd  Nd7  1  0.70861900  0.77026400  0.76882500  1
  F  F8  1  0.95216400  0.91657500  0.10884100  1
  F  F9  1  0.27060900  0.23016600  0.16934800  1
  F  F10  1  0.58974600  0.55195400  0.22600100  1
  F  F11  1  0.54958400  0.53973600  0.34761600  1
  F  F12  1  0.90264700  0.87798000  0.28562000  1
  F  F13  1  0.16011600  0.17303200  0.52996200  1
  F  F14  1  0.19705400  0.19252300  0.40530000  1
  F  F15  1  0.84580400  0.85140100  0.46770500  1
  F  F16  1  0.79865000  0.81424200  0.62756500  1
  F  F17  1  0.47979100  0.49401800  0.58031400  1
  F  F18  1  0.37227500  0.43227500  0.77952000  1
  F  F19  1  0.45265100  0.46320700  0.67272500  1
  F  F20  1  0.98855400  0.02552800  0.92322100  1
  F  F21  1  0.08735400  0.11486500  0.72058100  1
  F  F22  1  0.02420600  0.08639300  0.81353600  1
  F  F23  1  0.67331200  0.72869700  0.86089500  1
  F  F24  1  0.64535900  0.64267000  0.98599600  1
  F  F25  1  0.29796800  0.28463900  0.04442600  1
