# generated using pymatgen
data_Al22CdO34
_symmetry_space_group_name_H-M   'P 1'
_cell_length_a   11.30031100
_cell_length_b   9.77799600
_cell_length_c   11.81072324
_cell_angle_alpha   74.19632279
_cell_angle_beta   90.00000000
_cell_angle_gamma   90.00000000
_symmetry_Int_Tables_number   1
_chemical_formula_structural   Al22CdO34
_chemical_formula_sum   'Al44 Cd2 O68'
_cell_volume   1255.68969379
_cell_formula_units_Z   2
loop_
 _symmetry_equiv_pos_site_id
 _symmetry_equiv_pos_as_xyz
  1  'x, y, z'
loop_
 _atom_site_type_symbol
 _atom_site_label
 _atom_site_symmetry_multiplicity
 _atom_site_fract_x
 _atom_site_fract_y
 _atom_site_fract_z
 _atom_site_occupancy
  Al  Al0  1  0.00000000  0.00000000  0.00000000  1
  Al  Al1  1  0.12502000  0.34292700  0.21492400  1
  Al  Al2  1  0.00136100  0.09646400  0.21472600  1
  Al  Al3  1  0.25000000  0.50211400  0.99979100  1
  Al  Al4  1  0.00195300  0.35137000  0.94897900  1
  Al  Al5  1  0.00023400  0.45032800  0.64890400  1
  Al  Al6  1  0.99976600  0.54967200  0.35109600  1
  Al  Al7  1  0.37632700  0.84646500  0.20747500  1
  Al  Al8  1  0.12367300  0.84646500  0.20747500  1
  Al  Al9  1  0.25000000  0.59612300  0.21226400  1
  Al  Al10  1  0.50000000  0.00000000  0.00000000  1
  Al  Al11  1  0.99804700  0.64863000  0.05102100  1
  Al  Al12  1  0.25000000  0.84999400  0.94782900  1
  Al  Al13  1  0.99863900  0.90353600  0.78527400  1
  Al  Al14  1  0.12259800  0.65463800  0.78646800  1
  Al  Al15  1  0.25000000  0.94251300  0.64901500  1
  Al  Al16  1  0.25000000  0.04621900  0.35322300  1
  Al  Al17  1  0.62259800  0.34536200  0.21353200  1
  Al  Al18  1  0.37498000  0.34292700  0.21492400  1
  Al  Al19  1  0.49863900  0.09646400  0.21472600  1
  Al  Al20  1  0.75000000  0.49788600  0.00020900  1
  Al  Al21  1  0.25000000  0.15090000  0.04884300  1
  Al  Al22  1  0.49804700  0.35137000  0.94897900  1
  Al  Al23  1  0.25000000  0.40311700  0.78467600  1
  Al  Al24  1  0.37300300  0.15401000  0.78305500  1
  Al  Al25  1  0.12699700  0.15401000  0.78305500  1
  Al  Al26  1  0.49976600  0.45032800  0.64890400  1
  Al  Al27  1  0.50023400  0.54967200  0.35109600  1
  Al  Al28  1  0.87300300  0.84599000  0.21694500  1
  Al  Al29  1  0.62699700  0.84599000  0.21694500  1
  Al  Al30  1  0.75000000  0.59688300  0.21532400  1
  Al  Al31  1  0.50195300  0.64863000  0.05102100  1
  Al  Al32  1  0.75000000  0.84910000  0.95115700  1
  Al  Al33  1  0.50136100  0.90353600  0.78527400  1
  Al  Al34  1  0.62502000  0.65707300  0.78507600  1
  Al  Al35  1  0.37740200  0.65463800  0.78646800  1
  Al  Al36  1  0.75000000  0.95378100  0.64677700  1
  Al  Al37  1  0.75000000  0.05748700  0.35098500  1
  Al  Al38  1  0.87740200  0.34536200  0.21353200  1
  Al  Al39  1  0.75000000  0.15000600  0.05217100  1
  Al  Al40  1  0.75000000  0.40387700  0.78773600  1
  Al  Al41  1  0.62367300  0.15353500  0.79252500  1
  Al  Al42  1  0.87632700  0.15353500  0.79252500  1
  Al  Al43  1  0.87498000  0.65707300  0.78507600  1
  Cd  Cd44  1  0.25000000  0.71691100  0.46625100  1
  Cd  Cd45  1  0.75000000  0.28308900  0.53374900  1
  O  O46  1  0.99844400  0.09390600  0.71822200  1
  O  O47  1  0.00300500  0.29668700  0.10957000  1
  O  O48  1  0.13377100  0.45801500  0.89849500  1
  O  O49  1  0.99857600  0.19088000  0.90055500  1
  O  O50  1  0.25000000  0.59836000  0.70724700  1
  O  O51  1  0.99883700  0.59557600  0.71295600  1
  O  O52  1  0.12462200  0.34501300  0.71268500  1
  O  O53  1  0.13069200  0.65663200  0.29769300  1
  O  O54  1  0.00116300  0.40442400  0.28704400  1
  O  O55  1  0.25000000  0.79531600  0.10973500  1
  O  O56  1  0.13258300  0.54895300  0.09912900  1
  O  O57  1  0.11762400  0.95489300  0.90114900  1
  O  O58  1  0.38237600  0.95489300  0.90114900  1
  O  O59  1  0.25000000  0.68957000  0.89833900  1
  O  O60  1  0.50155600  0.09390600  0.71822200  1
  O  O61  1  0.25000000  0.09485700  0.70566400  1
  O  O62  1  0.12281600  0.84398100  0.71326000  1
  O  O63  1  0.37718400  0.84398100  0.71326000  1
  O  O64  1  0.25000000  0.94043100  0.49978200  1
  O  O65  1  0.37372600  0.15234000  0.29078500  1
  O  O66  1  0.12627400  0.15234000  0.29078500  1
  O  O67  1  0.25000000  0.89852800  0.28778900  1
  O  O68  1  0.00155600  0.90609400  0.28177800  1
  O  O69  1  0.49699500  0.29668700  0.10957000  1
  O  O70  1  0.25000000  0.31161600  0.09735200  1
  O  O71  1  0.38141100  0.04505500  0.09883900  1
  O  O72  1  0.11858900  0.04505500  0.09883900  1
  O  O73  1  0.63258300  0.45104700  0.90087100  1
  O  O74  1  0.36622900  0.45801500  0.89849500  1
  O  O75  1  0.50142400  0.19088000  0.90055500  1
  O  O76  1  0.25000000  0.20253800  0.88832500  1
  O  O77  1  0.75000000  0.59292200  0.71832200  1
  O  O78  1  0.50116300  0.59557600  0.71295600  1
  O  O79  1  0.37537800  0.34501300  0.71268500  1
  O  O80  1  0.63069200  0.34336800  0.70230700  1
  O  O81  1  0.50000000  0.50000000  0.50000000  1
  O  O82  1  0.36930800  0.65663200  0.29769300  1
  O  O83  1  0.62462200  0.65498700  0.28731500  1
  O  O84  1  0.49883700  0.40442400  0.28704400  1
  O  O85  1  0.25000000  0.40707800  0.28167800  1
  O  O86  1  0.75000000  0.79746200  0.11167500  1
  O  O87  1  0.49857600  0.80912000  0.09944500  1
  O  O88  1  0.36741700  0.54895300  0.09912900  1
  O  O89  1  0.63377100  0.54198500  0.10150500  1
  O  O90  1  0.61858900  0.95494500  0.90116100  1
  O  O91  1  0.88141100  0.95494500  0.90116100  1
  O  O92  1  0.75000000  0.68838400  0.90264800  1
  O  O93  1  0.50300500  0.70331300  0.89043000  1
  O  O94  1  0.75000000  0.10147200  0.71221100  1
  O  O95  1  0.87372600  0.84766000  0.70921500  1
  O  O96  1  0.62627400  0.84766000  0.70921500  1
  O  O97  1  0.75000000  0.05956900  0.50021800  1
  O  O98  1  0.62281600  0.15601900  0.28674000  1
  O  O99  1  0.87718400  0.15601900  0.28674000  1
  O  O100  1  0.75000000  0.90514300  0.29433600  1
  O  O101  1  0.49844400  0.90609400  0.28177800  1
  O  O102  1  0.75000000  0.31043000  0.10166100  1
  O  O103  1  0.61762400  0.04510700  0.09885100  1
  O  O104  1  0.88237600  0.04510700  0.09885100  1
  O  O105  1  0.86741700  0.45104700  0.90087100  1
  O  O106  1  0.75000000  0.20468400  0.89026500  1
  O  O107  1  0.86930800  0.34336800  0.70230700  1
  O  O108  1  0.00000000  0.50000000  0.50000000  1
  O  O109  1  0.87537800  0.65498700  0.28731500  1
  O  O110  1  0.75000000  0.40164000  0.29275300  1
  O  O111  1  0.00142400  0.80912000  0.09944500  1
  O  O112  1  0.86622900  0.54198500  0.10150500  1
  O  O113  1  0.99699500  0.70331300  0.89043000  1
