# generated using pymatgen
data_TaAg7S6
_symmetry_space_group_name_H-M   'P 1'
_cell_length_a   7.53614200
_cell_length_b   7.61566295
_cell_length_c   7.61987263
_cell_angle_alpha   92.60835525
_cell_angle_beta   117.90162859
_cell_angle_gamma   118.36421563
_symmetry_Int_Tables_number   1
_chemical_formula_structural   TaAg7S6
_chemical_formula_sum   'Ta1 Ag7 S6'
_cell_volume   319.28236523
_cell_formula_units_Z   1
loop_
 _symmetry_equiv_pos_site_id
 _symmetry_equiv_pos_as_xyz
  1  'x, y, z'
loop_
 _atom_site_type_symbol
 _atom_site_label
 _atom_site_symmetry_multiplicity
 _atom_site_fract_x
 _atom_site_fract_y
 _atom_site_fract_z
 _atom_site_occupancy
  Ta  Ta0  1  0.98364900  0.48623800  0.50541000  1
  Ag  Ag1  1  0.88557700  0.26218800  0.88305600  1
  Ag  Ag2  1  0.45374400  0.19450300  0.08769400  1
  Ag  Ag3  1  0.06358600  0.71827900  0.06467500  1
  Ag  Ag4  1  0.61646000  0.61938900  0.67560200  1
  Ag  Ag5  1  0.08416800  0.18434200  0.30163600  1
  Ag  Ag6  1  0.09261500  0.97118200  0.61951900  1
  Ag  Ag7  1  0.41954900  0.01742500  0.48554300  1
  S  S8  1  0.00603700  0.00348000  0.96365700  1
  S  S9  1  0.52139000  0.28588300  0.77860400  1
  S  S10  1  0.74837400  0.11404100  0.36983800  1
  S  S11  1  0.72917400  0.60017700  0.38607200  1
  S  S12  1  0.21569600  0.59795600  0.86471400  1
  S  S13  1  0.24197800  0.61291600  0.38598100  1
