# generated using pymatgen
data_Rb2U2O7
_symmetry_space_group_name_H-M   'P 1'
_cell_length_a   6.97956400
_cell_length_b   7.53415644
_cell_length_c   8.06156400
_cell_angle_alpha   105.45132337
_cell_angle_beta   89.82691619
_cell_angle_gamma   98.77781313
_symmetry_Int_Tables_number   1
_chemical_formula_structural   Rb2U2O7
_chemical_formula_sum   'Rb4 U4 O14'
_cell_volume   403.49577719
_cell_formula_units_Z   2
loop_
 _symmetry_equiv_pos_site_id
 _symmetry_equiv_pos_as_xyz
  1  'x, y, z'
loop_
 _atom_site_type_symbol
 _atom_site_label
 _atom_site_symmetry_multiplicity
 _atom_site_fract_x
 _atom_site_fract_y
 _atom_site_fract_z
 _atom_site_occupancy
  Rb  Rb0  1  0.24190100  0.47881600  0.62121000  1
  Rb  Rb1  1  0.26444700  0.49026400  0.12171000  1
  Rb  Rb2  1  0.75809900  0.52118400  0.37879000  1
  Rb  Rb3  1  0.73555300  0.50973600  0.87829000  1
  U  U4  1  0.03031300  0.99366800  0.24652100  1
  U  U5  1  0.96968700  0.00633200  0.75347900  1
  U  U6  1  0.50000000  0.00000000  0.00000000  1
  U  U7  1  0.50000000  0.00000000  0.50000000  1
  O  O8  1  0.06336700  0.25422100  0.31054600  1
  O  O9  1  0.19176900  0.02265000  0.55946700  1
  O  O10  1  0.00845100  0.26804600  0.81961300  1
  O  O11  1  0.19184800  0.02110200  0.95344500  1
  O  O12  1  0.55494700  0.26384100  0.08319800  1
  O  O13  1  0.44505300  0.73615900  0.91680200  1
  O  O14  1  0.36538100  0.98059800  0.24511000  1
  O  O15  1  0.55513100  0.26364900  0.54832700  1
  O  O16  1  0.44486900  0.73635100  0.45167300  1
  O  O17  1  0.80823100  0.97735000  0.44053300  1
  O  O18  1  0.63461900  0.01940200  0.75489000  1
  O  O19  1  0.93663300  0.74577900  0.68945400  1
  O  O20  1  0.80815200  0.97889800  0.04655500  1
  O  O21  1  0.99154900  0.73195400  0.18038700  1
