# generated using pymatgen
data_Na2U2O7
_symmetry_space_group_name_H-M   'P 1'
_cell_length_a   7.89964100
_cell_length_b   6.54128000
_cell_length_c   6.89967721
_cell_angle_alpha   69.38719634
_cell_angle_beta   90.00000000
_cell_angle_gamma   90.00000000
_symmetry_Int_Tables_number   1
_chemical_formula_structural   Na2U2O7
_chemical_formula_sum   'Na4 U4 O14'
_cell_volume   333.70740894
_cell_formula_units_Z   2
loop_
 _symmetry_equiv_pos_site_id
 _symmetry_equiv_pos_as_xyz
  1  'x, y, z'
loop_
 _atom_site_type_symbol
 _atom_site_label
 _atom_site_symmetry_multiplicity
 _atom_site_fract_x
 _atom_site_fract_y
 _atom_site_fract_z
 _atom_site_occupancy
  Na  Na0  1  0.50000000  0.50000000  0.00000000  1
  Na  Na1  1  0.25000000  0.48638200  0.49366400  1
  Na  Na2  1  0.00000000  0.50000000  0.00000000  1
  Na  Na3  1  0.75000000  0.51361800  0.50633600  1
  U  U4  1  0.75000000  0.99257800  0.03416200  1
  U  U5  1  0.50000000  0.00000000  0.50000000  1
  U  U6  1  0.25000000  0.00742200  0.96583800  1
  U  U7  1  0.00000000  0.00000000  0.50000000  1
  O  O8  1  0.47395200  0.69317300  0.58962500  1
  O  O9  1  0.54507800  0.96702500  0.82558500  1
  O  O10  1  0.25000000  0.69942200  0.08673600  1
  O  O11  1  0.75000000  0.30057800  0.91326400  1
  O  O12  1  0.45492200  0.03297500  0.17441500  1
  O  O13  1  0.02604800  0.69317300  0.58962500  1
  O  O14  1  0.52604800  0.30682700  0.41037500  1
  O  O15  1  0.25000000  0.04248600  0.61820000  1
  O  O16  1  0.95492200  0.96702500  0.82558500  1
  O  O17  1  0.75000000  0.68811500  0.13475200  1
  O  O18  1  0.25000000  0.31188500  0.86524800  1
  O  O19  1  0.04507800  0.03297500  0.17441500  1
  O  O20  1  0.75000000  0.95751400  0.38180000  1
  O  O21  1  0.97395200  0.30682700  0.41037500  1
