# generated using pymatgen
data_Ag3SI
_symmetry_space_group_name_H-M   'P 1'
_cell_length_a   4.87609800
_cell_length_b   5.02028700
_cell_length_c   5.05990265
_cell_angle_alpha   87.61947899
_cell_angle_beta   90.00000000
_cell_angle_gamma   90.00000000
_symmetry_Int_Tables_number   1
_chemical_formula_structural   Ag3SI
_chemical_formula_sum   'Ag3 S1 I1'
_cell_volume   123.75654559
_cell_formula_units_Z   1
loop_
 _symmetry_equiv_pos_site_id
 _symmetry_equiv_pos_as_xyz
  1  'x, y, z'
loop_
 _atom_site_type_symbol
 _atom_site_label
 _atom_site_symmetry_multiplicity
 _atom_site_fract_x
 _atom_site_fract_y
 _atom_site_fract_z
 _atom_site_occupancy
  Ag  Ag0  1  0.00000000  0.51534800  0.88506000  1
  Ag  Ag1  1  0.50000000  0.99621400  0.13816600  1
  Ag  Ag2  1  0.00000000  0.11061900  0.48394100  1
  S  S3  1  0.00000000  0.00185400  0.99090700  1
  I  I4  1  0.50000000  0.50606500  0.50192600  1
