# generated using pymatgen
data_SrNd3AlCuO8
_symmetry_space_group_name_H-M   'P 1'
_cell_length_a   6.01760100
_cell_length_b   8.94446527
_cell_length_c   9.12508834
_cell_angle_alpha   108.52967611
_cell_angle_beta   103.73459789
_cell_angle_gamma   92.72218215
_symmetry_Int_Tables_number   1
_chemical_formula_structural   SrNd3AlCuO8
_chemical_formula_sum   'Sr2 Nd6 Al2 Cu2 O16'
_cell_volume   448.32483779
_cell_formula_units_Z   2
loop_
 _symmetry_equiv_pos_site_id
 _symmetry_equiv_pos_as_xyz
  1  'x, y, z'
loop_
 _atom_site_type_symbol
 _atom_site_label
 _atom_site_symmetry_multiplicity
 _atom_site_fract_x
 _atom_site_fract_y
 _atom_site_fract_z
 _atom_site_occupancy
  Sr  Sr0  1  0.45082700  0.81216800  0.54738000  1
  Sr  Sr1  1  0.07479000  0.91555700  0.20868500  1
  Nd  Nd2  1  0.08956400  0.19061700  0.66975300  1
  Nd  Nd3  1  0.80063300  0.58005000  0.85698400  1
  Nd  Nd4  1  0.71062300  0.16143600  0.89391100  1
  Nd  Nd5  1  0.41413000  0.54221700  0.08000200  1
  Nd  Nd6  1  0.47971800  0.27382700  0.46547000  1
  Nd  Nd7  1  0.95895400  0.47303900  0.28879500  1
  Al  Al8  1  0.31816100  0.20513200  0.10058900  1
  Al  Al9  1  0.21040200  0.54512100  0.64844300  1
  Cu  Cu10  1  0.05279500  0.88328400  0.77157100  1
  Cu  Cu11  1  0.55639400  0.88605600  0.99118600  1
  O  O12  1  0.41973400  0.04273600  0.15620900  1
  O  O13  1  0.76156300  0.44112000  0.02694800  1
  O  O14  1  0.11115900  0.34962900  0.49942600  1
  O  O15  1  0.50105500  0.55832900  0.63767500  1
  O  O16  1  0.28439300  0.05538200  0.49080000  1
  O  O17  1  0.05195200  0.66821500  0.56120700  1
  O  O18  1  0.84354700  0.87251900  0.91189600  1
  O  O19  1  0.83058000  0.99833900  0.67229000  1
  O  O20  1  0.38541000  0.94365100  0.81978200  1
  O  O21  1  0.67731100  0.74794400  0.09840200  1
  O  O22  1  0.03915400  0.22422300  0.13316500  1
  O  O23  1  0.32525600  0.25543400  0.92763100  1
  O  O24  1  0.21045000  0.66346200  0.25583200  1
  O  O25  1  0.52388800  0.37525000  0.25427700  1
  O  O26  1  0.74067500  0.29927200  0.69846900  1
  O  O27  1  0.17688000  0.53598900  0.83322200  1
