# generated using pymatgen
data_La2Zr2O7
_symmetry_space_group_name_H-M   'P 1'
_cell_length_a   3.70019900
_cell_length_b   7.71053100
_cell_length_c   11.15363100
_cell_angle_alpha   90.00000000
_cell_angle_beta   90.00000000
_cell_angle_gamma   90.00000000
_symmetry_Int_Tables_number   1
_chemical_formula_structural   La2Zr2O7
_chemical_formula_sum   'La4 Zr4 O14'
_cell_volume   318.21865916
_cell_formula_units_Z   2
loop_
 _symmetry_equiv_pos_site_id
 _symmetry_equiv_pos_as_xyz
  1  'x, y, z'
loop_
 _atom_site_type_symbol
 _atom_site_label
 _atom_site_symmetry_multiplicity
 _atom_site_fract_x
 _atom_site_fract_y
 _atom_site_fract_z
 _atom_site_occupancy
  La  La0  1  0.50000000  0.50000000  0.50000000  1
  La  La1  1  0.00000000  0.25000000  0.77645100  1
  La  La2  1  0.00000000  0.75000000  0.22354900  1
  La  La3  1  0.50000000  0.00000000  0.50000000  1
  Zr  Zr4  1  0.00000000  0.25000000  0.23630600  1
  Zr  Zr5  1  0.00000000  0.75000000  0.76369400  1
  Zr  Zr6  1  0.50000000  0.50000000  0.00000000  1
  Zr  Zr7  1  0.50000000  0.00000000  0.00000000  1
  O  O8  1  0.50000000  0.25000000  0.36674800  1
  O  O9  1  0.00000000  0.46452700  0.63431100  1
  O  O10  1  0.50000000  0.25000000  0.90293200  1
  O  O11  1  0.50000000  0.75000000  0.86615300  1
  O  O12  1  0.00000000  0.52566500  0.88645000  1
  O  O13  1  0.00000000  0.47433500  0.11355000  1
  O  O14  1  0.00000000  0.02566500  0.11355000  1
  O  O15  1  0.50000000  0.25000000  0.13384700  1
  O  O16  1  0.50000000  0.75000000  0.09706800  1
  O  O17  1  0.00000000  0.53547300  0.36568900  1
  O  O18  1  0.00000000  0.96452700  0.36568900  1
  O  O19  1  0.00000000  0.03547300  0.63431100  1
  O  O20  1  0.50000000  0.75000000  0.63325200  1
  O  O21  1  0.00000000  0.97433500  0.88645000  1
