# generated using pymatgen
data_Ga12Ag2Te19
_symmetry_space_group_name_H-M   'P 1'
_cell_length_a   10.45494200
_cell_length_b   10.50234017
_cell_length_c   10.51814891
_cell_angle_alpha   89.12248655
_cell_angle_beta   89.76662504
_cell_angle_gamma   89.56393568
_symmetry_Int_Tables_number   1
_chemical_formula_structural   Ga12Ag2Te19
_chemical_formula_sum   'Ga12 Ag2 Te19'
_cell_volume   1154.72909397
_cell_formula_units_Z   1
loop_
 _symmetry_equiv_pos_site_id
 _symmetry_equiv_pos_as_xyz
  1  'x, y, z'
loop_
 _atom_site_type_symbol
 _atom_site_label
 _atom_site_symmetry_multiplicity
 _atom_site_fract_x
 _atom_site_fract_y
 _atom_site_fract_z
 _atom_site_occupancy
  Ga  Ga0  1  0.99114100  0.66795700  0.92223700  1
  Ga  Ga1  1  0.38628600  0.59242300  0.96860700  1
  Ga  Ga2  1  0.67500100  0.84066800  0.87317900  1
  Ga  Ga3  1  0.03688600  0.40288100  0.62032100  1
  Ga  Ga4  1  0.80899000  0.12249300  0.60016700  1
  Ga  Ga5  1  0.90587800  0.74877400  0.59133300  1
  Ga  Ga6  1  0.58191200  0.83361700  0.50332900  1
  Ga  Ga7  1  0.50282400  0.16935900  0.41976500  1
  Ga  Ga8  1  0.12516800  0.15914400  0.32839100  1
  Ga  Ga9  1  0.40267100  0.88140300  0.18469700  1
  Ga  Ga10  1  0.41226400  0.25297400  0.09030800  1
  Ga  Ga11  1  0.07743600  0.32804600  0.01047300  1
  Ag  Ag12  1  0.24115500  0.69591900  0.41849700  1
  Ag  Ag13  1  0.91808700  0.00294000  0.07414800  1
  Te  Te14  1  0.24917700  0.17565100  0.92046400  1
  Te  Te15  1  0.41554600  0.83653500  0.92426400  1
  Te  Te16  1  0.75176400  0.07773200  0.84260200  1
  Te  Te17  1  0.91335100  0.43269700  0.83474100  1
  Te  Te18  1  0.08382700  0.81929000  0.74850100  1
  Te  Te19  1  0.67622000  0.67016000  0.68443900  1
  Te  Te20  1  0.41676200  0.00044500  0.58394500  1
  Te  Te21  1  0.07658600  0.16013900  0.58587700  1
  Te  Te22  1  0.68631100  0.31691400  0.49731000  1
  Te  Te23  1  0.01046100  0.56927500  0.44079900  1
  Te  Te24  1  0.81459200  0.92988800  0.43148800  1
  Te  Te25  1  0.31747100  0.32591200  0.32142200  1
  Te  Te26  1  0.49031100  0.68304300  0.32418100  1
  Te  Te27  1  0.15928100  0.91974400  0.25117900  1
  Te  Te28  1  0.92579300  0.24392200  0.19382300  1
  Te  Te29  1  0.57110500  0.07093600  0.18637600  1
  Te  Te30  1  0.16566300  0.56399400  0.08538500  1
  Te  Te31  1  0.80852800  0.75459700  0.07279100  1
  Te  Te32  1  0.56335200  0.43042700  0.98936100  1
