# generated using pymatgen
data_Lu(SiNi)2
_symmetry_space_group_name_H-M   'P 1'
_cell_length_a   5.48628512
_cell_length_b   5.48628512
_cell_length_c   5.48628512
_cell_angle_alpha   138.15765947
_cell_angle_beta   138.15765947
_cell_angle_gamma   60.66162145
_symmetry_Int_Tables_number   1
_chemical_formula_structural   Lu(SiNi)2
_chemical_formula_sum   'Lu1 Si2 Ni2'
_cell_volume   72.69542695
_cell_formula_units_Z   1
loop_
 _symmetry_equiv_pos_site_id
 _symmetry_equiv_pos_as_xyz
  1  'x, y, z'
loop_
 _atom_site_type_symbol
 _atom_site_label
 _atom_site_symmetry_multiplicity
 _atom_site_fract_x
 _atom_site_fract_y
 _atom_site_fract_z
 _atom_site_occupancy
  Lu  Lu0  1  0.00000000  0.00000000  0.00000000  1
  Si  Si1  1  0.62480300  0.62480300  0.00000000  1
  Si  Si2  1  0.37519700  0.37519700  0.00000000  1
  Ni  Ni3  1  0.25000000  0.75000000  0.50000000  1
  Ni  Ni4  1  0.75000000  0.25000000  0.50000000  1
