# generated using pymatgen
data_Zr3Sc4O12
_symmetry_space_group_name_H-M   'P 1'
_cell_length_a   6.23209800
_cell_length_b   6.24987657
_cell_length_c   12.39775306
_cell_angle_alpha   99.37639915
_cell_angle_beta   99.43096997
_cell_angle_gamma   99.67259426
_symmetry_Int_Tables_number   1
_chemical_formula_structural   Zr3Sc4O12
_chemical_formula_sum   'Zr6 Sc8 O24'
_cell_volume   460.49799868
_cell_formula_units_Z   2
loop_
 _symmetry_equiv_pos_site_id
 _symmetry_equiv_pos_as_xyz
  1  'x, y, z'
loop_
 _atom_site_type_symbol
 _atom_site_label
 _atom_site_symmetry_multiplicity
 _atom_site_fract_x
 _atom_site_fract_y
 _atom_site_fract_z
 _atom_site_occupancy
  Zr  Zr0  1  0.14164100  0.61259800  0.90627700  1
  Zr  Zr1  1  0.99355600  0.99671500  0.75096000  1
  Zr  Zr2  1  0.31565200  0.14274700  0.55669900  1
  Zr  Zr3  1  0.68434800  0.85725300  0.44330100  1
  Zr  Zr4  1  0.00644400  0.00328500  0.24904000  1
  Zr  Zr5  1  0.85835900  0.38740200  0.09372300  1
  Sc  Sc6  1  0.13778400  0.60361000  0.40682400  1
  Sc  Sc7  1  0.39506000  0.67888500  0.68073900  1
  Sc  Sc8  1  0.39150100  0.68307000  0.17930100  1
  Sc  Sc9  1  0.32320700  0.14129100  0.05482700  1
  Sc  Sc10  1  0.60494000  0.32111500  0.31926100  1
  Sc  Sc11  1  0.67679300  0.85870900  0.94517300  1
  Sc  Sc12  1  0.86221600  0.39639000  0.59317600  1
  Sc  Sc13  1  0.60849900  0.31693000  0.82069900  1
  O  O14  1  0.06393400  0.67555800  0.70925400  1
  O  O15  1  0.08907700  0.93846700  0.41164900  1
  O  O16  1  0.05830500  0.68076800  0.19994700  1
  O  O17  1  0.17857100  0.41878900  0.53684600  1
  O  O18  1  0.09765600  0.94095100  0.91202900  1
  O  O19  1  0.32003800  0.09747000  0.71955800  1
  O  O20  1  0.17782800  0.41798300  0.03675500  1
  O  O21  1  0.42587700  0.82280300  0.54035000  1
  O  O22  1  0.42031000  0.58119800  0.34092400  1
  O  O23  1  0.32424800  0.09806400  0.22099800  1
  O  O24  1  0.41823100  0.81884400  0.03877800  1
  O  O25  1  0.57969000  0.41880200  0.65907600  1
  O  O26  1  0.42088600  0.57334100  0.83994300  1
  O  O27  1  0.57412300  0.17719700  0.45965000  1
  O  O28  1  0.67996200  0.90253000  0.28044200  1
  O  O29  1  0.57911400  0.42665900  0.16005700  1
  O  O30  1  0.58176900  0.18115600  0.96122200  1
  O  O31  1  0.82142900  0.58121100  0.46315400  1
  O  O32  1  0.67575200  0.90193600  0.77900200  1
  O  O33  1  0.91092300  0.06153300  0.58835100  1
  O  O34  1  0.82217200  0.58201700  0.96324500  1
  O  O35  1  0.93606600  0.32444200  0.29074600  1
  O  O36  1  0.90234400  0.05904900  0.08797100  1
  O  O37  1  0.94169500  0.31923200  0.80005300  1
