# generated using pymatgen
data_SrLa5F17
_symmetry_space_group_name_H-M   'P 1'
_cell_length_a   7.20369500
_cell_length_b   7.26912318
_cell_length_c   7.36389260
_cell_angle_alpha   89.79731691
_cell_angle_beta   90.59539288
_cell_angle_gamma   119.45798347
_symmetry_Int_Tables_number   1
_chemical_formula_structural   SrLa5F17
_chemical_formula_sum   'Sr1 La5 F17'
_cell_volume   335.73563733
_cell_formula_units_Z   1
loop_
 _symmetry_equiv_pos_site_id
 _symmetry_equiv_pos_as_xyz
  1  'x, y, z'
loop_
 _atom_site_type_symbol
 _atom_site_label
 _atom_site_symmetry_multiplicity
 _atom_site_fract_x
 _atom_site_fract_y
 _atom_site_fract_z
 _atom_site_occupancy
  Sr  Sr0  1  0.00410900  0.33966500  0.27711100  1
  La  La1  1  0.64378800  0.97852500  0.74335300  1
  La  La2  1  0.66500400  0.66177900  0.24367200  1
  La  La3  1  0.34144600  0.00065600  0.24350300  1
  La  La4  1  0.35099700  0.33922600  0.75011200  1
  La  La5  1  0.00384000  0.68257800  0.74844100  1
  F  F6  1  0.67956800  0.04278900  0.42779000  1
  F  F7  1  0.95093800  0.64018500  0.42709000  1
  F  F8  1  0.65740200  0.33330500  0.19292600  1
  F  F9  1  0.68842000  0.33119400  0.75725100  1
  F  F10  1  0.99684200  0.01232000  0.75970600  1
  F  F11  1  0.68509800  0.65490800  0.91770400  1
  F  F12  1  0.34189800  0.03017600  0.91708200  1
  F  F13  1  0.64115700  0.67704400  0.58342600  1
  F  F14  1  0.36389500  0.31375400  0.42287300  1
  F  F15  1  0.65671700  0.97573100  0.06740800  1
  F  F16  1  0.29533500  0.35695500  0.06208600  1
  F  F17  1  0.00126000  0.98878100  0.25047100  1
  F  F18  1  0.32688500  0.66160400  0.80660000  1
  F  F19  1  0.34751100  0.67823500  0.30411900  1
  F  F20  1  0.03775500  0.35885800  0.62353200  1
  F  F21  1  0.31813200  0.96222300  0.58271700  1
  F  F22  1  0.03970200  0.66570800  0.06782500  1
