# generated using pymatgen
data_La2Th8O19
_symmetry_space_group_name_H-M   'P 1'
_cell_length_a   3.98048000
_cell_length_b   3.98048000
_cell_length_c   28.23808400
_cell_angle_alpha   90.00000000
_cell_angle_beta   90.00000000
_cell_angle_gamma   90.00000000
_symmetry_Int_Tables_number   1
_chemical_formula_structural   La2Th8O19
_chemical_formula_sum   'La2 Th8 O19'
_cell_volume   447.41044437
_cell_formula_units_Z   1
loop_
 _symmetry_equiv_pos_site_id
 _symmetry_equiv_pos_as_xyz
  1  'x, y, z'
loop_
 _atom_site_type_symbol
 _atom_site_label
 _atom_site_symmetry_multiplicity
 _atom_site_fract_x
 _atom_site_fract_y
 _atom_site_fract_z
 _atom_site_occupancy
  La  La0  1  0.50000000  0.00000000  0.94406600  1
  La  La1  1  0.00000000  0.50000000  0.05593400  1
  Th  Th2  1  0.50000000  0.00000000  0.15079700  1
  Th  Th3  1  0.00000000  0.50000000  0.24997300  1
  Th  Th4  1  0.50000000  0.00000000  0.34988800  1
  Th  Th5  1  0.00000000  0.50000000  0.44999200  1
  Th  Th6  1  0.50000000  0.00000000  0.55000800  1
  Th  Th7  1  0.00000000  0.50000000  0.65011200  1
  Th  Th8  1  0.50000000  0.00000000  0.75002700  1
  Th  Th9  1  0.00000000  0.50000000  0.84920300  1
  O  O10  1  0.50000000  0.50000000  0.19897400  1
  O  O11  1  0.00000000  0.00000000  0.30031500  1
  O  O12  1  0.50000000  0.50000000  0.39972800  1
  O  O13  1  0.00000000  0.00000000  0.50000000  1
  O  O14  1  0.50000000  0.50000000  0.60027200  1
  O  O15  1  0.00000000  0.00000000  0.69968500  1
  O  O16  1  0.50000000  0.50000000  0.80102600  1
  O  O17  1  0.00000000  0.00000000  0.89509200  1
  O  O18  1  0.00000000  0.00000000  0.79842200  1
  O  O19  1  0.50000000  0.50000000  0.90246700  1
  O  O20  1  0.00000000  0.00000000  0.00000000  1
  O  O21  1  0.00000000  0.00000000  0.10490800  1
  O  O22  1  0.50000000  0.50000000  0.09753300  1
  O  O23  1  0.00000000  0.00000000  0.20157800  1
  O  O24  1  0.50000000  0.50000000  0.29943200  1
  O  O25  1  0.00000000  0.00000000  0.39989300  1
  O  O26  1  0.50000000  0.50000000  0.50000000  1
  O  O27  1  0.00000000  0.00000000  0.60010700  1
  O  O28  1  0.50000000  0.50000000  0.70056800  1
