# generated using pymatgen
data_KNO3
_symmetry_space_group_name_H-M   'P 1'
_cell_length_a   4.62593400
_cell_length_b   5.57294317
_cell_length_c   7.24596866
_cell_angle_alpha   89.90735698
_cell_angle_beta   73.47842734
_cell_angle_gamma   89.83477281
_symmetry_Int_Tables_number   1
_chemical_formula_structural   KNO3
_chemical_formula_sum   'K2 N2 O6'
_cell_volume   179.08822687
_cell_formula_units_Z   2
loop_
 _symmetry_equiv_pos_site_id
 _symmetry_equiv_pos_as_xyz
  1  'x, y, z'
loop_
 _atom_site_type_symbol
 _atom_site_label
 _atom_site_symmetry_multiplicity
 _atom_site_fract_x
 _atom_site_fract_y
 _atom_site_fract_z
 _atom_site_occupancy
  K  K0  1  0.02261800  0.00203400  0.98178300  1
  K  K1  1  0.53330100  0.49796400  0.49011900  1
  N  N2  1  0.63237000  0.49918700  0.93399200  1
  N  N3  1  0.04127900  0.00088300  0.47914800  1
  O  O4  1  0.15751100  0.89135600  0.59317500  1
  O  O5  1  0.77138300  0.49874900  0.06293500  1
  O  O6  1  0.92529200  0.88365100  0.36774100  1
  O  O7  1  0.56626700  0.69613900  0.86868500  1
  O  O8  1  0.56608200  0.30168100  0.86936400  1
  O  O9  1  0.04189800  0.22835800  0.47405900  1
