# generated using pymatgen
data_Cu3AsSe4
_symmetry_space_group_name_H-M   'P 1'
_cell_length_a   6.84278191
_cell_length_b   6.84278191
_cell_length_c   6.84278191
_cell_angle_alpha   131.49782412
_cell_angle_beta   131.49782412
_cell_angle_gamma   71.02332490
_symmetry_Int_Tables_number   1
_chemical_formula_structural   Cu3AsSe4
_chemical_formula_sum   'Cu3 As1 Se4'
_cell_volume   175.99767849
_cell_formula_units_Z   1
loop_
 _symmetry_equiv_pos_site_id
 _symmetry_equiv_pos_as_xyz
  1  'x, y, z'
loop_
 _atom_site_type_symbol
 _atom_site_label
 _atom_site_symmetry_multiplicity
 _atom_site_fract_x
 _atom_site_fract_y
 _atom_site_fract_z
 _atom_site_occupancy
  Cu  Cu0  1  0.25000000  0.75000000  0.50000000  1
  Cu  Cu1  1  0.75000000  0.25000000  0.50000000  1
  Cu  Cu2  1  0.50000000  0.50000000  0.00000000  1
  As  As3  1  0.00000000  0.00000000  0.00000000  1
  Se  Se4  1  0.87650500  0.38553700  0.00000000  1
  Se  Se5  1  0.12349500  0.12349500  0.50903200  1
  Se  Se6  1  0.38553700  0.87650500  0.00000000  1
  Se  Se7  1  0.61446300  0.61446300  0.49096800  1
