# generated using pymatgen
data_Cd2Bi6O11
_symmetry_space_group_name_H-M   'P 1'
_cell_length_a   3.67554200
_cell_length_b   3.68728019
_cell_length_c   23.86020501
_cell_angle_alpha   88.32867943
_cell_angle_beta   89.86680875
_cell_angle_gamma   89.22628585
_symmetry_Int_Tables_number   1
_chemical_formula_structural   Cd2Bi6O11
_chemical_formula_sum   'Cd2 Bi6 O11'
_cell_volume   323.20382845
_cell_formula_units_Z   1
loop_
 _symmetry_equiv_pos_site_id
 _symmetry_equiv_pos_as_xyz
  1  'x, y, z'
loop_
 _atom_site_type_symbol
 _atom_site_label
 _atom_site_symmetry_multiplicity
 _atom_site_fract_x
 _atom_site_fract_y
 _atom_site_fract_z
 _atom_site_occupancy
  Cd  Cd0  1  0.93710500  0.86637800  0.24711900  1
  Cd  Cd1  1  0.44835900  0.38966800  0.14067000  1
  Bi  Bi2  1  0.37622900  0.38000100  0.89028900  1
  Bi  Bi3  1  0.98790800  0.02022500  0.74938700  1
  Bi  Bi4  1  0.47954200  0.50108900  0.61013300  1
  Bi  Bi5  1  0.94294400  0.06148400  0.47724900  1
  Bi  Bi6  1  0.44743300  0.54637600  0.36292400  1
  Bi  Bi7  1  0.96517500  0.98651800  0.01929500  1
  O  O8  1  0.05557400  0.87597100  0.91492000  1
  O  O9  1  0.46753000  0.30041100  0.99056600  1
  O  O10  1  0.97352000  0.39671100  0.81838300  1
  O  O11  1  0.48802900  0.31187600  0.72229500  1
  O  O12  1  0.94915600  0.56053500  0.42076100  1
  O  O13  1  0.96087800  0.86592800  0.61898200  1
  O  O14  1  0.48196500  0.50443400  0.52108100  1
  O  O15  1  0.45142900  0.06269300  0.41783800  1
  O  O16  1  0.94827500  0.34592000  0.30022600  1
  O  O17  1  0.43817500  0.87764200  0.19196600  1
  O  O18  1  0.95077300  0.39614100  0.08591600  1
