# generated using pymatgen
data_Mg2Zr5O12
_symmetry_space_group_name_H-M   'P 1'
_cell_length_a   6.16720400
_cell_length_b   6.23634844
_cell_length_c   12.56214726
_cell_angle_alpha   99.34174484
_cell_angle_beta   99.51562933
_cell_angle_gamma   98.90795219
_symmetry_Int_Tables_number   1
_chemical_formula_structural   Mg2Zr5O12
_chemical_formula_sum   'Mg4 Zr10 O24'
_cell_volume   461.91663445
_cell_formula_units_Z   2
loop_
 _symmetry_equiv_pos_site_id
 _symmetry_equiv_pos_as_xyz
  1  'x, y, z'
loop_
 _atom_site_type_symbol
 _atom_site_label
 _atom_site_symmetry_multiplicity
 _atom_site_fract_x
 _atom_site_fract_y
 _atom_site_fract_z
 _atom_site_occupancy
  Mg  Mg0  1  0.40477700  0.86398800  0.09025700  1
  Mg  Mg1  1  0.86177100  0.67876600  0.45372000  1
  Mg  Mg2  1  0.13822900  0.32123400  0.54628000  1
  Mg  Mg3  1  0.59522300  0.13601200  0.90974300  1
  Zr  Zr4  1  0.99098100  0.99299400  0.25196600  1
  Zr  Zr5  1  0.32156100  0.60774100  0.81970400  1
  Zr  Zr6  1  0.38254900  0.85500000  0.58814900  1
  Zr  Zr7  1  0.00901900  0.00700600  0.74803400  1
  Zr  Zr8  1  0.86282200  0.69905300  0.94916500  1
  Zr  Zr9  1  0.30407900  0.61454800  0.32060400  1
  Zr  Zr10  1  0.13717800  0.30094700  0.05083500  1
  Zr  Zr11  1  0.67843900  0.39225900  0.18029600  1
  Zr  Zr12  1  0.69592100  0.38545200  0.67939600  1
  Zr  Zr13  1  0.61745100  0.14500000  0.41185100  1
  O  O14  1  0.33120800  0.93343700  0.78959700  1
  O  O15  1  0.06449400  0.91521400  0.08979200  1
  O  O16  1  0.31614600  0.94683100  0.30819100  1
  O  O17  1  0.57337100  0.81487400  0.95925000  1
  O  O18  1  0.05709000  0.89236800  0.59051500  1
  O  O19  1  0.91468200  0.68157400  0.78421100  1
  O  O20  1  0.57957600  0.81919100  0.45778500  1
  O  O21  1  0.17328700  0.55365100  0.95391400  1
  O  O22  1  0.41865900  0.58293600  0.15998300  1
  O  O23  1  0.91370100  0.67283600  0.27936300  1
  O  O24  1  0.18430200  0.58084100  0.46021900  1
  O  O25  1  0.58134100  0.41706400  0.84001700  1
  O  O26  1  0.44014500  0.58352800  0.66283800  1
  O  O27  1  0.82671300  0.44634900  0.04608600  1
  O  O28  1  0.08531800  0.31842600  0.21578900  1
  O  O29  1  0.55985500  0.41647200  0.33716200  1
  O  O30  1  0.81569800  0.41915900  0.53978100  1
  O  O31  1  0.42662900  0.18512600  0.04075000  1
  O  O32  1  0.08629900  0.32716400  0.72063700  1
  O  O33  1  0.93550600  0.08478600  0.91020800  1
  O  O34  1  0.42042400  0.18080900  0.54221500  1
  O  O35  1  0.66879200  0.06656300  0.21040300  1
  O  O36  1  0.94291000  0.10763200  0.40948500  1
  O  O37  1  0.68385400  0.05316900  0.69180900  1
