# generated using pymatgen
data_K2U2O7
_symmetry_space_group_name_H-M   'P 1'
_cell_length_a   6.94649100
_cell_length_b   7.18808482
_cell_length_c   8.01224290
_cell_angle_alpha   106.10140243
_cell_angle_beta   89.83129984
_cell_angle_gamma   99.15207490
_symmetry_Int_Tables_number   1
_chemical_formula_structural   K2U2O7
_chemical_formula_sum   'K4 U4 O14'
_cell_volume   379.12257981
_cell_formula_units_Z   2
loop_
 _symmetry_equiv_pos_site_id
 _symmetry_equiv_pos_as_xyz
  1  'x, y, z'
loop_
 _atom_site_type_symbol
 _atom_site_label
 _atom_site_symmetry_multiplicity
 _atom_site_fract_x
 _atom_site_fract_y
 _atom_site_fract_z
 _atom_site_occupancy
  K  K0  1  0.24286800  0.47786300  0.62060700  1
  K  K1  1  0.26253400  0.49087400  0.12223500  1
  K  K2  1  0.75713200  0.52213700  0.37939300  1
  K  K3  1  0.73746600  0.50912600  0.87776500  1
  U  U4  1  0.02985300  0.99226400  0.24666500  1
  U  U5  1  0.97014700  0.00773600  0.75333500  1
  U  U6  1  0.50000000  0.00000000  0.00000000  1
  U  U7  1  0.50000000  0.00000000  0.50000000  1
  O  O8  1  0.06088100  0.26623000  0.31441400  1
  O  O9  1  0.19113300  0.02592000  0.55644300  1
  O  O10  1  0.01199900  0.28268600  0.82233500  1
  O  O11  1  0.19143900  0.02430700  0.95739200  1
  O  O12  1  0.55787100  0.27841600  0.08858100  1
  O  O13  1  0.44212900  0.72158400  0.91141900  1
  O  O14  1  0.36581400  0.97496600  0.24350200  1
  O  O15  1  0.55886000  0.27739900  0.54966500  1
  O  O16  1  0.44114000  0.72260100  0.45033500  1
  O  O17  1  0.80886700  0.97408000  0.44355700  1
  O  O18  1  0.63418600  0.02503400  0.75649800  1
  O  O19  1  0.93911900  0.73377000  0.68558600  1
  O  O20  1  0.80856100  0.97569300  0.04260800  1
  O  O21  1  0.98800100  0.71731400  0.17766500  1
