# generated using pymatgen
data_Ca(HoSe2)2
_symmetry_space_group_name_H-M   'P 1'
_cell_length_a   4.13752500
_cell_length_b   7.02311500
_cell_length_c   7.24501479
_cell_angle_alpha   72.05111241
_cell_angle_beta   90.00000000
_cell_angle_gamma   90.00000000
_symmetry_Int_Tables_number   1
_chemical_formula_structural   Ca(HoSe2)2
_chemical_formula_sum   'Ca1 Ho2 Se4'
_cell_volume   200.28190042
_cell_formula_units_Z   1
loop_
 _symmetry_equiv_pos_site_id
 _symmetry_equiv_pos_as_xyz
  1  'x, y, z'
loop_
 _atom_site_type_symbol
 _atom_site_label
 _atom_site_symmetry_multiplicity
 _atom_site_fract_x
 _atom_site_fract_y
 _atom_site_fract_z
 _atom_site_occupancy
  Ca  Ca0  1  0.50000000  0.00000000  0.50000000  1
  Ho  Ho1  1  0.00000000  0.00000000  0.00000000  1
  Ho  Ho2  1  0.50000000  0.50000000  0.00000000  1
  Se  Se3  1  0.50000000  0.24140400  0.76950100  1
  Se  Se4  1  0.00000000  0.25838200  0.23986400  1
  Se  Se5  1  0.00000000  0.74161800  0.76013600  1
  Se  Se6  1  0.50000000  0.75859600  0.23049900  1
