# generated using pymatgen
data_Al11NO15
_symmetry_space_group_name_H-M   'P 1'
_cell_length_a   5.63099700
_cell_length_b   5.69356996
_cell_length_c   7.95511727
_cell_angle_alpha   89.84751748
_cell_angle_beta   88.87595325
_cell_angle_gamma   89.75757575
_symmetry_Int_Tables_number   1
_chemical_formula_structural   Al11NO15
_chemical_formula_sum   'Al11 N1 O15'
_cell_volume   254.99263212
_cell_formula_units_Z   1
loop_
 _symmetry_equiv_pos_site_id
 _symmetry_equiv_pos_as_xyz
  1  'x, y, z'
loop_
 _atom_site_type_symbol
 _atom_site_label
 _atom_site_symmetry_multiplicity
 _atom_site_fract_x
 _atom_site_fract_y
 _atom_site_fract_z
 _atom_site_occupancy
  Al  Al0  1  0.01505700  0.99694100  0.99243900  1
  Al  Al1  1  0.99588400  0.50252000  0.25404300  1
  Al  Al2  1  0.50471800  0.49199900  0.49334100  1
  Al  Al3  1  0.48404300  0.00204800  0.75743700  1
  Al  Al4  1  0.74303600  0.00695900  0.37514400  1
  Al  Al5  1  0.51582900  0.25814100  0.12220400  1
  Al  Al6  1  0.25058700  0.49930300  0.87562900  1
  Al  Al7  1  0.51527200  0.74527200  0.11198000  1
  Al  Al8  1  0.98563800  0.74443400  0.63752300  1
  Al  Al9  1  0.25610300  0.00683600  0.37458600  1
  Al  Al10  1  0.98468200  0.25681200  0.63749500  1
  N  N11  1  0.49863500  0.22964200  0.36393500  1
  O  O12  1  0.00038600  0.77300600  0.38354500  1
  O  O13  1  0.75936800  0.99952200  0.62340700  1
  O  O14  1  0.99999200  0.23175800  0.38277700  1
  O  O15  1  0.02048900  0.25226400  0.86514100  1
  O  O16  1  0.47995800  0.25229500  0.88890900  1
  O  O17  1  0.26229000  0.50344900  0.11921000  1
  O  O18  1  0.73476200  0.50520200  0.13650400  1
  O  O19  1  0.77280500  0.50259400  0.60889200  1
  O  O20  1  0.01965300  0.74451800  0.86443100  1
  O  O21  1  0.48006500  0.74622700  0.88324500  1
  O  O22  1  0.49963400  0.76441400  0.36701000  1
  O  O23  1  0.22677700  0.99742500  0.61465200  1
  O  O24  1  0.74500000  0.99482900  0.12612300  1
  O  O25  1  0.26519900  0.99123500  0.13510500  1
  O  O26  1  0.23413800  0.50035500  0.63029300  1
