# generated using pymatgen
data_Zr7N2O11
_symmetry_space_group_name_H-M   'P 1'
_cell_length_a   8.15803300
_cell_length_b   8.18238127
_cell_length_c   8.20185653
_cell_angle_alpha   73.16136592
_cell_angle_beta   72.94584662
_cell_angle_gamma   72.69296351
_symmetry_Int_Tables_number   1
_chemical_formula_structural   Zr7N2O11
_chemical_formula_sum   'Zr14 N4 O22'
_cell_volume   487.27417464
_cell_formula_units_Z   2
loop_
 _symmetry_equiv_pos_site_id
 _symmetry_equiv_pos_as_xyz
  1  'x, y, z'
loop_
 _atom_site_type_symbol
 _atom_site_label
 _atom_site_symmetry_multiplicity
 _atom_site_fract_x
 _atom_site_fract_y
 _atom_site_fract_z
 _atom_site_occupancy
  Zr  Zr0  1  0.00298700  0.00245600  0.99913400  1
  Zr  Zr1  1  0.83712300  0.40320700  0.74469900  1
  Zr  Zr2  1  0.71973700  0.85245000  0.45175500  1
  Zr  Zr3  1  0.92120100  0.22193200  0.38176100  1
  Zr  Zr4  1  0.79385200  0.59923300  0.09369500  1
  Zr  Zr5  1  0.40308700  0.74579700  0.84202600  1
  Zr  Zr6  1  0.60975000  0.08931100  0.79251700  1
  Zr  Zr7  1  0.48797800  0.48639200  0.49334000  1
  Zr  Zr8  1  0.39838500  0.90447400  0.20528500  1
  Zr  Zr9  1  0.55464400  0.29123000  0.12827100  1
  Zr  Zr10  1  0.20256900  0.39350600  0.91965200  1
  Zr  Zr11  1  0.08676800  0.78786700  0.61603200  1
  Zr  Zr12  1  0.28859100  0.13350200  0.54404900  1
  Zr  Zr13  1  0.14691000  0.60415300  0.24829400  1
  N  N14  1  0.74871000  0.16757800  0.92430000  1
  N  N15  1  0.16985500  0.92647200  0.75090800  1
  N  N16  1  0.24286800  0.83406300  0.08051600  1
  N  N17  1  0.02703700  0.41845800  0.17767800  1
  O  O18  1  0.97421700  0.59818700  0.82751400  1
  O  O19  1  0.83495400  0.96442200  0.61140700  1
  O  O20  1  0.96219300  0.67968100  0.46685800  1
  O  O21  1  0.92504000  0.76873100  0.12192500  1
  O  O22  1  0.59498600  0.84258300  0.97164600  1
  O  O23  1  0.67286900  0.49629600  0.96679100  1
  O  O24  1  0.64145600  0.63084100  0.64487400  1
  O  O25  1  0.71262600  0.31212800  0.59544200  1
  O  O26  1  0.50740300  0.95381900  0.65262800  1
  O  O27  1  0.87421400  0.05127600  0.26035100  1
  O  O28  1  0.61112900  0.71094300  0.31405800  1
  O  O29  1  0.68350300  0.38235800  0.28209800  1
  O  O30  1  0.31148300  0.59433400  0.71901000  1
  O  O31  1  0.38917300  0.27238100  0.68930800  1
  O  O32  1  0.51367100  0.05080800  0.32717800  1
  O  O33  1  0.28545200  0.69806800  0.40215300  1
  O  O34  1  0.35161500  0.38173700  0.36352600  1
  O  O35  1  0.34979400  0.50062600  0.03112700  1
  O  O36  1  0.39424900  0.16499600  0.02979900  1
  O  O37  1  0.05355800  0.24991100  0.88817700  1
  O  O38  1  0.04019600  0.30117900  0.54745800  1
  O  O39  1  0.17416400  0.03261500  0.39275900  1
