# generated using pymatgen
data_Y4Zr3O12
_symmetry_space_group_name_H-M   'P 1'
_cell_length_a   6.43462700
_cell_length_b   6.49641750
_cell_length_c   12.92540713
_cell_angle_alpha   99.13454220
_cell_angle_beta   99.37376756
_cell_angle_gamma   99.30500576
_symmetry_Int_Tables_number   1
_chemical_formula_structural   Y4Zr3O12
_chemical_formula_sum   'Y8 Zr6 O24'
_cell_volume   516.48603563
_cell_formula_units_Z   2
loop_
 _symmetry_equiv_pos_site_id
 _symmetry_equiv_pos_as_xyz
  1  'x, y, z'
loop_
 _atom_site_type_symbol
 _atom_site_label
 _atom_site_symmetry_multiplicity
 _atom_site_fract_x
 _atom_site_fract_y
 _atom_site_fract_z
 _atom_site_occupancy
  Y  Y0  1  0.38828900  0.86406300  0.09753200  1
  Y  Y1  1  0.31166900  0.60994100  0.81874300  1
  Y  Y2  1  0.29734200  0.61007600  0.31872900  1
  Y  Y3  1  0.85903600  0.69333200  0.44720300  1
  Y  Y4  1  0.68833100  0.39005900  0.18125700  1
  Y  Y5  1  0.14096400  0.30666800  0.55279700  1
  Y  Y6  1  0.70265800  0.38992400  0.68127100  1
  Y  Y7  1  0.61171100  0.13593700  0.90246800  1
  Zr  Zr8  1  0.99144600  0.99343800  0.24666300  1
  Zr  Zr9  1  0.39236500  0.85612800  0.59364700  1
  Zr  Zr10  1  0.00855400  0.00656200  0.75333700  1
  Zr  Zr11  1  0.85472700  0.67548600  0.94688400  1
  Zr  Zr12  1  0.14527300  0.32451400  0.05311600  1
  Zr  Zr13  1  0.60763500  0.14387200  0.40635300  1
  O  O14  1  0.32020900  0.94430200  0.78655200  1
  O  O15  1  0.03326100  0.89204800  0.08911400  1
  O  O16  1  0.31612700  0.96320600  0.29672900  1
  O  O17  1  0.07747600  0.92158200  0.59481000  1
  O  O18  1  0.59101000  0.81911500  0.96303200  1
  O  O19  1  0.17330800  0.57463500  0.96603000  1
  O  O20  1  0.92458300  0.69554800  0.79300000  1
  O  O21  1  0.56693900  0.83124900  0.46331100  1
  O  O22  1  0.40567500  0.56551100  0.15768700  1
  O  O23  1  0.18606100  0.59498100  0.47043600  1
  O  O24  1  0.92494600  0.68298400  0.27781300  1
  O  O25  1  0.59432500  0.43448900  0.84231300  1
  O  O26  1  0.42765000  0.58511700  0.65798000  1
  O  O27  1  0.07541700  0.30445200  0.20700000  1
  O  O28  1  0.82669200  0.42536500  0.03397000  1
  O  O29  1  0.57235000  0.41488300  0.34202000  1
  O  O30  1  0.40899000  0.18088500  0.03696800  1
  O  O31  1  0.07505400  0.31701600  0.72218700  1
  O  O32  1  0.81393900  0.40501900  0.52956400  1
  O  O33  1  0.43306100  0.16875100  0.53668900  1
  O  O34  1  0.96673900  0.10795200  0.91088600  1
  O  O35  1  0.67979100  0.05569800  0.21344800  1
  O  O36  1  0.92252400  0.07841800  0.40519000  1
  O  O37  1  0.68387300  0.03679400  0.70327100  1
