# generated using pymatgen
data_KNa4SnSb3
_symmetry_space_group_name_H-M   'P 1'
_cell_length_a   8.39165900
_cell_length_b   9.26227700
_cell_length_c   17.43092163
_cell_angle_alpha   58.38370974
_cell_angle_beta   90.00000000
_cell_angle_gamma   90.00000000
_symmetry_Int_Tables_number   1
_chemical_formula_structural   KNa4SnSb3
_chemical_formula_sum   'K4 Na16 Sn4 Sb12'
_cell_volume   1153.74633859
_cell_formula_units_Z   4
loop_
 _symmetry_equiv_pos_site_id
 _symmetry_equiv_pos_as_xyz
  1  'x, y, z'
loop_
 _atom_site_type_symbol
 _atom_site_label
 _atom_site_symmetry_multiplicity
 _atom_site_fract_x
 _atom_site_fract_y
 _atom_site_fract_z
 _atom_site_occupancy
  K  K0  1  0.02450800  0.91233300  0.91293100  1
  K  K1  1  0.97549200  0.08766700  0.08706900  1
  K  K2  1  0.52450800  0.08766700  0.58706900  1
  K  K3  1  0.47549200  0.91233300  0.41293100  1
  Na  Na4  1  0.99691500  0.57204600  0.25853500  1
  Na  Na5  1  0.49691500  0.42795400  0.24146500  1
  Na  Na6  1  0.50308500  0.57204600  0.75853500  1
  Na  Na7  1  0.00308500  0.42795400  0.74146500  1
  Na  Na8  1  0.12605300  0.17171900  0.25864800  1
  Na  Na9  1  0.62605300  0.82828100  0.24135200  1
  Na  Na10  1  0.87394700  0.82828100  0.74135200  1
  Na  Na11  1  0.37394700  0.17171900  0.75864800  1
  Na  Na12  1  0.16085800  0.83759600  0.58292700  1
  Na  Na13  1  0.94845400  0.77366900  0.40522500  1
  Na  Na14  1  0.83914200  0.16240400  0.41707300  1
  Na  Na15  1  0.33914200  0.83759600  0.08292700  1
  Na  Na16  1  0.55154600  0.77366900  0.90522500  1
  Na  Na17  1  0.05154600  0.22633100  0.59477500  1
  Na  Na18  1  0.44845400  0.22633100  0.09477500  1
  Na  Na19  1  0.66085800  0.16240400  0.91707300  1
  Sn  Sn20  1  0.84834200  0.47866800  0.09007600  1
  Sn  Sn21  1  0.65165800  0.47866800  0.59007600  1
  Sn  Sn22  1  0.15165800  0.52133200  0.90992400  1
  Sn  Sn23  1  0.34834200  0.52133200  0.40992400  1
  Sb  Sb24  1  0.19960400  0.51509500  0.07751300  1
  Sb  Sb25  1  0.78870500  0.76691900  0.58486700  1
  Sb  Sb26  1  0.24039300  0.83584700  0.26094300  1
  Sb  Sb27  1  0.21129500  0.23308100  0.41513300  1
  Sb  Sb28  1  0.28870500  0.23308100  0.91513300  1
  Sb  Sb29  1  0.69960400  0.48490500  0.42248700  1
  Sb  Sb30  1  0.80039600  0.48490500  0.92248700  1
  Sb  Sb31  1  0.30039600  0.51509500  0.57751300  1
  Sb  Sb32  1  0.74039300  0.16415300  0.23905700  1
  Sb  Sb33  1  0.75960700  0.16415300  0.73905700  1
  Sb  Sb34  1  0.25960700  0.83584700  0.76094300  1
  Sb  Sb35  1  0.71129500  0.76691900  0.08486700  1
