# generated using pymatgen
data_Dy2Zr8O19
_symmetry_space_group_name_H-M   'P 1'
_cell_length_a   3.64358900
_cell_length_b   3.64358900
_cell_length_c   25.73805800
_cell_angle_alpha   90.00000000
_cell_angle_beta   90.00000000
_cell_angle_gamma   90.00000000
_symmetry_Int_Tables_number   1
_chemical_formula_structural   Dy2Zr8O19
_chemical_formula_sum   'Dy2 Zr8 O19'
_cell_volume   341.69178673
_cell_formula_units_Z   1
loop_
 _symmetry_equiv_pos_site_id
 _symmetry_equiv_pos_as_xyz
  1  'x, y, z'
loop_
 _atom_site_type_symbol
 _atom_site_label
 _atom_site_symmetry_multiplicity
 _atom_site_fract_x
 _atom_site_fract_y
 _atom_site_fract_z
 _atom_site_occupancy
  Dy  Dy0  1  0.50000000  0.00000000  0.94358300  1
  Dy  Dy1  1  0.00000000  0.50000000  0.05641700  1
  Zr  Zr2  1  0.50000000  0.00000000  0.15277900  1
  Zr  Zr3  1  0.00000000  0.50000000  0.25197700  1
  Zr  Zr4  1  0.50000000  0.00000000  0.35109700  1
  Zr  Zr5  1  0.00000000  0.50000000  0.45030700  1
  Zr  Zr6  1  0.50000000  0.00000000  0.54969300  1
  Zr  Zr7  1  0.50000000  0.00000000  0.74802300  1
  Zr  Zr8  1  0.00000000  0.50000000  0.64890300  1
  Zr  Zr9  1  0.00000000  0.50000000  0.84722100  1
  O  O10  1  0.50000000  0.50000000  0.19702600  1
  O  O11  1  0.00000000  0.00000000  0.30544600  1
  O  O12  1  0.50000000  0.50000000  0.39822800  1
  O  O13  1  0.00000000  0.00000000  0.50000000  1
  O  O14  1  0.50000000  0.50000000  0.60177200  1
  O  O15  1  0.00000000  0.00000000  0.69455400  1
  O  O16  1  0.50000000  0.50000000  0.80297400  1
  O  O17  1  0.00000000  0.00000000  0.79262100  1
  O  O18  1  0.00000000  0.00000000  0.89103900  1
  O  O19  1  0.50000000  0.50000000  0.90247200  1
  O  O20  1  0.00000000  0.00000000  0.00000000  1
  O  O21  1  0.00000000  0.00000000  0.10896100  1
  O  O22  1  0.50000000  0.50000000  0.09752800  1
  O  O23  1  0.00000000  0.00000000  0.20737900  1
  O  O24  1  0.50000000  0.50000000  0.29734200  1
  O  O25  1  0.00000000  0.00000000  0.40282500  1
  O  O26  1  0.50000000  0.50000000  0.50000000  1
  O  O27  1  0.00000000  0.00000000  0.59717500  1
  O  O28  1  0.50000000  0.50000000  0.70265800  1
