# generated using pymatgen
data_Bi2Pb3F12
_symmetry_space_group_name_H-M   'P 1'
_cell_length_a   4.32393100
_cell_length_b   4.33481385
_cell_length_c   17.25612757
_cell_angle_alpha   84.65213775
_cell_angle_beta   83.77876033
_cell_angle_gamma   60.31094164
_symmetry_Int_Tables_number   1
_chemical_formula_structural   Bi2Pb3F12
_chemical_formula_sum   'Bi2 Pb3 F12'
_cell_volume   279.03253449
_cell_formula_units_Z   1
loop_
 _symmetry_equiv_pos_site_id
 _symmetry_equiv_pos_as_xyz
  1  'x, y, z'
loop_
 _atom_site_type_symbol
 _atom_site_label
 _atom_site_symmetry_multiplicity
 _atom_site_fract_x
 _atom_site_fract_y
 _atom_site_fract_z
 _atom_site_occupancy
  Bi  Bi0  1  0.29722200  0.09925300  0.38766100  1
  Bi  Bi1  1  0.72577700  0.66077400  0.17842300  1
  Pb  Pb2  1  0.02351800  0.04297500  0.99119100  1
  Pb  Pb3  1  0.41636200  0.47113100  0.79234100  1
  Pb  Pb4  1  0.80286100  0.84340000  0.59239000  1
  F  F5  1  0.33612200  0.45370500  0.93436000  1
  F  F6  1  0.06826800  0.12395700  0.83970300  1
  F  F7  1  0.15106300  0.13736700  0.53056500  1
  F  F8  1  0.77188600  0.81341700  0.74264400  1
  F  F9  1  0.49347600  0.49660900  0.38264200  1
  F  F10  1  0.45308900  0.47425800  0.63353500  1
  F  F11  1  0.87045500  0.09226300  0.14537200  1
  F  F12  1  0.80118600  0.82939700  0.44922800  1
  F  F13  1  0.76224500  0.87863800  0.29992600  1
  F  F14  1  0.14814500  0.24782300  0.25338500  1
  F  F15  1  0.21308900  0.46577600  0.10805400  1
  F  F16  1  0.62123700  0.76925700  0.03858200  1
