# generated using pymatgen
data_In3AsSe3
_symmetry_space_group_name_H-M   'P 1'
_cell_length_a   4.24630300
_cell_length_b   6.13005500
_cell_length_c   17.09165300
_cell_angle_alpha   90.00000000
_cell_angle_beta   90.00000000
_cell_angle_gamma   90.00000000
_symmetry_Int_Tables_number   1
_chemical_formula_structural   In3AsSe3
_chemical_formula_sum   'In6 As2 Se6'
_cell_volume   444.89694001
_cell_formula_units_Z   2
loop_
 _symmetry_equiv_pos_site_id
 _symmetry_equiv_pos_as_xyz
  1  'x, y, z'
loop_
 _atom_site_type_symbol
 _atom_site_label
 _atom_site_symmetry_multiplicity
 _atom_site_fract_x
 _atom_site_fract_y
 _atom_site_fract_z
 _atom_site_occupancy
  In  In0  1  0.50000000  0.49223000  0.93391900  1
  In  In1  1  0.00000000  0.99223000  0.06608100  1
  In  In2  1  0.00000000  0.99754700  0.30580400  1
  In  In3  1  0.50000000  0.49046400  0.43676700  1
  In  In4  1  0.00000000  0.99046400  0.56323300  1
  In  In5  1  0.50000000  0.49754700  0.69419600  1
  As  As6  1  0.00000000  0.74862900  0.43434800  1
  As  As7  1  0.50000000  0.24862900  0.56565200  1
  Se  Se8  1  0.50000000  0.24406400  0.81336500  1
  Se  Se9  1  0.00000000  0.76116600  0.93394900  1
  Se  Se10  1  0.50000000  0.26116600  0.06605100  1
  Se  Se11  1  0.00000000  0.74406400  0.18663500  1
  Se  Se12  1  0.50000000  0.26590000  0.30450000  1
  Se  Se13  1  0.00000000  0.76590000  0.69550000  1
