# generated using pymatgen
data_RbBiF4
_symmetry_space_group_name_H-M   'P 1'
_cell_length_a   4.31455000
_cell_length_b   4.32026739
_cell_length_c   21.92940580
_cell_angle_alpha   84.66900263
_cell_angle_beta   85.94514603
_cell_angle_gamma   64.48411610
_symmetry_Int_Tables_number   1
_chemical_formula_structural   RbBiF4
_chemical_formula_sum   'Rb3 Bi3 F12'
_cell_volume   367.08595145
_cell_formula_units_Z   3
loop_
 _symmetry_equiv_pos_site_id
 _symmetry_equiv_pos_as_xyz
  1  'x, y, z'
loop_
 _atom_site_type_symbol
 _atom_site_label
 _atom_site_symmetry_multiplicity
 _atom_site_fract_x
 _atom_site_fract_y
 _atom_site_fract_z
 _atom_site_occupancy
  Rb  Rb0  1  0.35347000  0.37152500  0.84391800  1
  Rb  Rb1  1  0.66954600  0.67101200  0.67356200  1
  Rb  Rb2  1  0.95402500  0.98173600  0.50201500  1
  Bi  Bi3  1  0.92838500  0.03612900  0.00364700  1
  Bi  Bi4  1  0.25994000  0.46706000  0.32348100  1
  Bi  Bi5  1  0.58660300  0.77675000  0.16561900  1
  F  F6  1  0.41223300  0.28410900  0.96862600  1
  F  F7  1  0.00690200  0.00527600  0.89930900  1
  F  F8  1  0.31505700  0.30677400  0.72661300  1
  F  F9  1  0.71665700  0.65111400  0.29893300  1
  F  F10  1  0.59871600  0.61744100  0.55761400  1
  F  F11  1  0.24120400  0.39293700  0.42132600  1
  F  F12  1  0.04426800  0.99510100  0.35046100  1
  F  F13  1  0.15423300  0.83309800  0.11293100  1
  F  F14  1  0.15318700  0.88603200  0.23097600  1
  F  F15  1  0.47831300  0.26449300  0.20322800  1
  F  F16  1  0.53382100  0.15289400  0.08510800  1
  F  F17  1  0.75877100  0.59985600  0.01796700  1
