# generated using pymatgen
data_Dy2TiO5
_symmetry_space_group_name_H-M   'P 1'
_cell_length_a   7.37524200
_cell_length_b   7.48686158
_cell_length_c   12.47705240
_cell_angle_alpha   91.14453056
_cell_angle_beta   106.43429050
_cell_angle_gamma   118.27356491
_symmetry_Int_Tables_number   1
_chemical_formula_structural   Dy2TiO5
_chemical_formula_sum   'Dy10 Ti5 O25'
_cell_volume   572.21550663
_cell_formula_units_Z   5
loop_
 _symmetry_equiv_pos_site_id
 _symmetry_equiv_pos_as_xyz
  1  'x, y, z'
loop_
 _atom_site_type_symbol
 _atom_site_label
 _atom_site_symmetry_multiplicity
 _atom_site_fract_x
 _atom_site_fract_y
 _atom_site_fract_z
 _atom_site_occupancy
  Dy  Dy0  1  0.86959000  0.63929900  0.05143100  1
  Dy  Dy1  1  0.87507000  0.43117900  0.34287700  1
  Dy  Dy2  1  0.89526200  0.13679100  0.05794100  1
  Dy  Dy3  1  0.88907500  0.96531400  0.33117300  1
  Dy  Dy4  1  0.41188400  0.69404500  0.06741900  1
  Dy  Dy5  1  0.38591300  0.94508000  0.30466600  1
  Dy  Dy6  1  0.36067000  0.45212300  0.30441900  1
  Dy  Dy7  1  0.44828900  0.24014000  0.56666400  1
  Dy  Dy8  1  0.40078300  0.47153300  0.80629100  1
  Dy  Dy9  1  0.38986700  0.93182900  0.79518200  1
  Ti  Ti10  1  0.85676200  0.17941800  0.55050900  1
  Ti  Ti11  1  0.39195500  0.19645900  0.05882000  1
  Ti  Ti12  1  0.84763400  0.89620500  0.81993500  1
  Ti  Ti13  1  0.89730300  0.71872600  0.56040100  1
  Ti  Ti14  1  0.36812600  0.67058600  0.56131600  1
  O  O15  1  0.98004400  0.27739900  0.24197900  1
  O  O16  1  0.50952500  0.43361600  0.00008600  1
  O  O17  1  0.55076000  0.08702100  0.02417500  1
  O  O18  1  0.51945500  0.27206300  0.22286100  1
  O  O19  1  0.80949000  0.85020300  0.13013700  1
  O  O20  1  0.74612100  0.13689100  0.39307600  1
  O  O21  1  0.96937500  0.00866700  0.52920500  1
  O  O22  1  0.21645300  0.82557300  0.12293500  1
  O  O23  1  0.52730300  0.76220300  0.25978500  1
  O  O24  1  0.95096400  0.84368100  0.71205600  1
  O  O25  1  0.81707300  0.66931500  0.39383700  1
  O  O26  1  0.59900400  0.01872500  0.57399800  1
  O  O27  1  0.54173500  0.57088600  0.52260200  1
  O  O28  1  0.52853300  0.74681200  0.72141800  1
  O  O29  1  0.80525400  0.41837700  0.55643000  1
  O  O30  1  0.76372700  0.66307700  0.88416500  1
  O  O31  1  0.23974100  0.66259200  0.39428400  1
  O  O32  1  0.22773500  0.38726100  0.10725000  1
  O  O33  1  0.18086100  0.41260200  0.58960100  1
  O  O34  1  0.42939600  0.22188600  0.73621300  1
  O  O35  1  0.75965200  0.07618800  0.86850200  1
  O  O36  1  0.26407500  0.13021200  0.37905400  1
  O  O37  1  0.11708700  0.04829600  0.94724700  1
  O  O38  1  0.18947200  0.78806500  0.59947100  1
  O  O39  1  0.29258200  0.65746200  0.88118900  1
