# generated using pymatgen
data_Nd2Th2O7
_symmetry_space_group_name_H-M   'P 1'
_cell_length_a   3.90965800
_cell_length_b   8.00375700
_cell_length_c   11.29922300
_cell_angle_alpha   90.00000000
_cell_angle_beta   90.00000000
_cell_angle_gamma   90.00000000
_symmetry_Int_Tables_number   1
_chemical_formula_structural   Nd2Th2O7
_chemical_formula_sum   'Nd4 Th4 O14'
_cell_volume   353.57475036
_cell_formula_units_Z   2
loop_
 _symmetry_equiv_pos_site_id
 _symmetry_equiv_pos_as_xyz
  1  'x, y, z'
loop_
 _atom_site_type_symbol
 _atom_site_label
 _atom_site_symmetry_multiplicity
 _atom_site_fract_x
 _atom_site_fract_y
 _atom_site_fract_z
 _atom_site_occupancy
  Nd  Nd0  1  0.00000000  0.75000000  0.23107500  1
  Nd  Nd1  1  0.50000000  0.00000000  0.50000000  1
  Nd  Nd2  1  0.00000000  0.25000000  0.76892500  1
  Nd  Nd3  1  0.50000000  0.50000000  0.50000000  1
  Th  Th4  1  0.00000000  0.75000000  0.74788100  1
  Th  Th5  1  0.00000000  0.25000000  0.25211900  1
  Th  Th6  1  0.50000000  0.00000000  0.00000000  1
  Th  Th7  1  0.50000000  0.50000000  0.00000000  1
  O  O8  1  0.00000000  0.96540000  0.37257800  1
  O  O9  1  0.50000000  0.25000000  0.13103400  1
  O  O10  1  0.00000000  0.01268500  0.12133000  1
  O  O11  1  0.00000000  0.98731500  0.87867000  1
  O  O12  1  0.00000000  0.51268500  0.87867000  1
  O  O13  1  0.50000000  0.25000000  0.87508100  1
  O  O14  1  0.50000000  0.75000000  0.61403900  1
  O  O15  1  0.00000000  0.03460000  0.62742200  1
  O  O16  1  0.00000000  0.46540000  0.62742200  1
  O  O17  1  0.00000000  0.53460000  0.37257800  1
  O  O18  1  0.50000000  0.25000000  0.38596100  1
  O  O19  1  0.50000000  0.75000000  0.12491900  1
  O  O20  1  0.00000000  0.48731500  0.12133000  1
  O  O21  1  0.50000000  0.75000000  0.86896600  1
