# generated using pymatgen
data_CdN
_symmetry_space_group_name_H-M   'P 1'
_cell_length_a   3.34677237
_cell_length_b   3.34677237
_cell_length_c   5.86733600
_cell_angle_alpha   90.00000000
_cell_angle_beta   90.00000000
_cell_angle_gamma   120.00000732
_symmetry_Int_Tables_number   1
_chemical_formula_structural   CdN
_chemical_formula_sum   'Cd2 N2'
_cell_volume   56.91462895
_cell_formula_units_Z   2
loop_
 _symmetry_equiv_pos_site_id
 _symmetry_equiv_pos_as_xyz
  1  'x, y, z'
loop_
 _atom_site_type_symbol
 _atom_site_label
 _atom_site_symmetry_multiplicity
 _atom_site_fract_x
 _atom_site_fract_y
 _atom_site_fract_z
 _atom_site_occupancy
  Cd  Cd0  1  0.00000000  0.00000000  0.50000000  1
  Cd  Cd1  1  0.00000000  0.00000000  0.00000000  1
  N  N2  1  0.33333300  0.66666700  0.25000000  1
  N  N3  1  0.66666700  0.33333300  0.75000000  1
