# generated using pymatgen
data_In4(SnO4)3
_symmetry_space_group_name_H-M   'P 1'
_cell_length_a   6.29463500
_cell_length_b   6.33794150
_cell_length_c   12.67568164
_cell_angle_alpha   99.30582214
_cell_angle_beta   99.73676215
_cell_angle_gamma   99.39571722
_symmetry_Int_Tables_number   1
_chemical_formula_structural   In4(SnO4)3
_chemical_formula_sum   'In8 Sn6 O24'
_cell_volume   482.31619059
_cell_formula_units_Z   2
loop_
 _symmetry_equiv_pos_site_id
 _symmetry_equiv_pos_as_xyz
  1  'x, y, z'
loop_
 _atom_site_type_symbol
 _atom_site_label
 _atom_site_symmetry_multiplicity
 _atom_site_fract_x
 _atom_site_fract_y
 _atom_site_fract_z
 _atom_site_occupancy
  In  In0  1  0.39725100  0.86553600  0.09486700  1
  In  In1  1  0.31330000  0.60464000  0.81765800  1
  In  In2  1  0.30593600  0.60296900  0.31650100  1
  In  In3  1  0.86388900  0.68649700  0.44768600  1
  In  In4  1  0.68670000  0.39536000  0.18234200  1
  In  In5  1  0.13611100  0.31350300  0.55231400  1
  In  In6  1  0.60274900  0.13446400  0.90513300  1
  In  In7  1  0.69406400  0.39703100  0.68349900  1
  Sn  Sn8  1  0.99586600  0.99628300  0.24815400  1
  Sn  Sn9  1  0.39616900  0.86010800  0.59181300  1
  Sn  Sn10  1  0.00413400  0.00371700  0.75184600  1
  Sn  Sn11  1  0.86099600  0.68159000  0.94824000  1
  Sn  Sn12  1  0.13900400  0.31841000  0.05176000  1
  Sn  Sn13  1  0.60383100  0.13989200  0.40818700  1
  O  O14  1  0.31593400  0.94131600  0.79508600  1
  O  O15  1  0.04934300  0.89858800  0.08894000  1
  O  O16  1  0.31910600  0.95236700  0.29939600  1
  O  O17  1  0.58964500  0.81929200  0.96042000  1
  O  O18  1  0.06888200  0.90380200  0.59536900  1
  O  O19  1  0.90748200  0.69563900  0.78714000  1
  O  O20  1  0.58517600  0.83390000  0.46269500  1
  O  O21  1  0.16943200  0.57517500  0.95842700  1
  O  O22  1  0.40575100  0.57502400  0.15807400  1
  O  O23  1  0.91072100  0.68525900  0.27874400  1
  O  O24  1  0.18711300  0.59144600  0.46219600  1
  O  O25  1  0.59424900  0.42497600  0.84192600  1
  O  O26  1  0.42097700  0.58699600  0.65859900  1
  O  O27  1  0.83056800  0.42482500  0.04157300  1
  O  O28  1  0.09251800  0.30436100  0.21286000  1
  O  O29  1  0.57902300  0.41300400  0.34140100  1
  O  O30  1  0.81288700  0.40855400  0.53780400  1
  O  O31  1  0.41035500  0.18070800  0.03958000  1
  O  O32  1  0.08927900  0.31474100  0.72125600  1
  O  O33  1  0.95065700  0.10141200  0.91106000  1
  O  O34  1  0.41482400  0.16610000  0.53730500  1
  O  O35  1  0.68406600  0.05868400  0.20491400  1
  O  O36  1  0.93111800  0.09619800  0.40463100  1
  O  O37  1  0.68089400  0.04763300  0.70060400  1
