# generated using pymatgen
data_SrTe5O11
_symmetry_space_group_name_H-M   'P 1'
_cell_length_a   3.95487800
_cell_length_b   7.13202100
_cell_length_c   20.76447783
_cell_angle_alpha   87.32769217
_cell_angle_beta   90.00000000
_cell_angle_gamma   90.00000000
_symmetry_Int_Tables_number   1
_chemical_formula_structural   SrTe5O11
_chemical_formula_sum   'Sr2 Te10 O22'
_cell_volume   585.05160825
_cell_formula_units_Z   2
loop_
 _symmetry_equiv_pos_site_id
 _symmetry_equiv_pos_as_xyz
  1  'x, y, z'
loop_
 _atom_site_type_symbol
 _atom_site_label
 _atom_site_symmetry_multiplicity
 _atom_site_fract_x
 _atom_site_fract_y
 _atom_site_fract_z
 _atom_site_occupancy
  Sr  Sr0  1  0.50000000  0.00000000  0.00000000  1
  Sr  Sr1  1  0.00000000  0.50000000  0.00000000  1
  Te  Te2  1  0.00000000  0.76137100  0.13132600  1
  Te  Te3  1  0.50000000  0.33017200  0.20548500  1
  Te  Te4  1  0.00000000  0.12759600  0.32704800  1
  Te  Te5  1  0.50000000  0.31152200  0.63746500  1
  Te  Te6  1  0.50000000  0.00000000  0.50000000  1
  Te  Te7  1  0.50000000  0.68847800  0.36253500  1
  Te  Te8  1  0.00000000  0.87240400  0.67295200  1
  Te  Te9  1  0.00000000  0.50000000  0.50000000  1
  Te  Te10  1  0.50000000  0.66982800  0.79451500  1
  Te  Te11  1  0.00000000  0.23862900  0.86867400  1
  O  O12  1  0.50000000  0.57482800  0.22809000  1
  O  O13  1  0.00000000  0.58195100  0.38236600  1
  O  O14  1  0.00000000  0.27153700  0.23692300  1
  O  O15  1  0.50000000  0.19639400  0.29495500  1
  O  O16  1  0.50000000  0.40716500  0.54736900  1
  O  O17  1  0.50000000  0.94811000  0.39768500  1
  O  O18  1  0.00000000  0.89230600  0.29444500  1
  O  O19  1  0.00000000  0.18882700  0.48326700  1
  O  O20  1  0.00000000  0.81117300  0.51673300  1
  O  O21  1  0.00000000  0.10769400  0.70555500  1
  O  O22  1  0.50000000  0.59283500  0.45263100  1
  O  O23  1  0.50000000  0.05189000  0.60231500  1
  O  O24  1  0.50000000  0.15168600  0.88677400  1
  O  O25  1  0.50000000  0.80360600  0.70504500  1
  O  O26  1  0.00000000  0.41804900  0.61763400  1
  O  O27  1  0.00000000  0.72846300  0.76307700  1
  O  O28  1  0.00000000  0.80918700  0.03429800  1
  O  O29  1  0.00000000  0.50417400  0.88395200  1
  O  O30  1  0.50000000  0.42517200  0.77191000  1
  O  O31  1  0.00000000  0.19081300  0.96570200  1
  O  O32  1  0.00000000  0.49582600  0.11604800  1
  O  O33  1  0.50000000  0.84831400  0.11322600  1
