# generated using pymatgen
data_Ba11(Nb3S14)2
_symmetry_space_group_name_H-M   'P 1'
_cell_length_a   7.02025300
_cell_length_b   12.03567432
_cell_length_c   14.62810646
_cell_angle_alpha   98.11874551
_cell_angle_beta   103.63682791
_cell_angle_gamma   90.33057068
_symmetry_Int_Tables_number   1
_chemical_formula_structural   Ba11(Nb3S14)2
_chemical_formula_sum   'Ba11 Nb6 S28'
_cell_volume   1188.11780627
_cell_formula_units_Z   1
loop_
 _symmetry_equiv_pos_site_id
 _symmetry_equiv_pos_as_xyz
  1  'x, y, z'
loop_
 _atom_site_type_symbol
 _atom_site_label
 _atom_site_symmetry_multiplicity
 _atom_site_fract_x
 _atom_site_fract_y
 _atom_site_fract_z
 _atom_site_occupancy
  Ba  Ba0  1  0.10249600  0.03342000  0.21539500  1
  Ba  Ba1  1  0.30504200  0.10548900  0.60551400  1
  Ba  Ba2  1  0.60936200  0.53375100  0.21128600  1
  Ba  Ba3  1  0.80189900  0.59398300  0.60353100  1
  Ba  Ba4  1  0.96558700  0.65798400  0.99577100  1
  Ba  Ba5  1  0.98810000  0.28085000  0.00134600  1
  Ba  Ba6  1  0.19758500  0.39968900  0.39741900  1
  Ba  Ba7  1  0.39353200  0.46095400  0.78794200  1
  Ba  Ba8  1  0.49775200  0.85466900  0.00714700  1
  Ba  Ba9  1  0.69751600  0.89981900  0.39614900  1
  Ba  Ba10  1  0.88909000  0.96534200  0.78532100  1
  Nb  Nb11  1  0.62540000  0.21640500  0.26676800  1
  Nb  Nb12  1  0.76023800  0.24344400  0.50013600  1
  Nb  Nb13  1  0.86486300  0.29210300  0.73526200  1
  Nb  Nb14  1  0.13568000  0.70141900  0.26416700  1
  Nb  Nb15  1  0.25380800  0.75571100  0.49968000  1
  Nb  Nb16  1  0.35444100  0.78755900  0.73243800  1
  S  S17  1  0.86193600  0.28385500  0.19927600  1
  S  S18  1  0.60101900  0.02816400  0.20487200  1
  S  S19  1  0.34247700  0.28328400  0.18492100  1
  S  S20  1  0.95097900  0.15129600  0.40042400  1
  S  S21  1  0.69618900  0.39503800  0.39703400  1
  S  S22  1  0.45245500  0.15513900  0.39848200  1
  S  S23  1  0.04501100  0.35313400  0.60662700  1
  S  S24  1  0.79861200  0.10077200  0.60311000  1
  S  S25  1  0.56770300  0.35204500  0.60933400  1
  S  S26  1  0.15511400  0.21328700  0.80693900  1
  S  S27  1  0.92123300  0.46819200  0.82563500  1
  S  S28  1  0.64876600  0.21510000  0.80829900  1
  S  S29  1  0.61582200  0.44805000  0.00023200  1
  S  S30  1  0.33415300  0.78625100  0.18455600  1
  S  S31  1  0.83951700  0.77878700  0.18969200  1
  S  S32  1  0.10210100  0.52573900  0.17345100  1
  S  S33  1  0.43547700  0.64849400  0.39016000  1
  S  S34  1  0.19707600  0.89695000  0.39581900  1
  S  S35  1  0.95646000  0.64655400  0.39048300  1
  S  S36  1  0.54832500  0.84675300  0.60066800  1
  S  S37  1  0.29675000  0.60430900  0.60284700  1
  S  S38  1  0.05320600  0.84550400  0.60195900  1
  S  S39  1  0.65273400  0.71786900  0.80927400  1
  S  S40  1  0.40122200  0.97123300  0.80274400  1
  S  S41  1  0.15078200  0.72278600  0.81817200  1
  S  S42  1  0.84672500  0.00844200  0.99972200  1
  S  S43  1  0.45423700  0.59406400  0.99803900  1
  S  S44  1  0.14440100  0.00814700  0.00031000  1
