# generated using pymatgen
data_Tb2Zr8O19
_symmetry_space_group_name_H-M   'P 1'
_cell_length_a   3.64772700
_cell_length_b   3.64772700
_cell_length_c   25.77184700
_cell_angle_alpha   90.00000000
_cell_angle_beta   90.00000000
_cell_angle_gamma   90.00000000
_symmetry_Int_Tables_number   1
_chemical_formula_structural   Tb2Zr8O19
_chemical_formula_sum   'Tb2 Zr8 O19'
_cell_volume   342.91793513
_cell_formula_units_Z   1
loop_
 _symmetry_equiv_pos_site_id
 _symmetry_equiv_pos_as_xyz
  1  'x, y, z'
loop_
 _atom_site_type_symbol
 _atom_site_label
 _atom_site_symmetry_multiplicity
 _atom_site_fract_x
 _atom_site_fract_y
 _atom_site_fract_z
 _atom_site_occupancy
  Tb  Tb0  1  0.00000000  0.50000000  0.94345200  1
  Tb  Tb1  1  0.50000000  0.00000000  0.05654800  1
  Zr  Zr2  1  0.00000000  0.50000000  0.15312900  1
  Zr  Zr3  1  0.50000000  0.00000000  0.25215400  1
  Zr  Zr4  1  0.00000000  0.50000000  0.35122900  1
  Zr  Zr5  1  0.50000000  0.00000000  0.45037500  1
  Zr  Zr6  1  0.00000000  0.50000000  0.54962500  1
  Zr  Zr7  1  0.50000000  0.00000000  0.64877100  1
  Zr  Zr8  1  0.00000000  0.50000000  0.74784600  1
  Zr  Zr9  1  0.50000000  0.00000000  0.84687100  1
  O  O10  1  0.00000000  0.00000000  0.39835900  1
  O  O11  1  0.50000000  0.50000000  0.50000000  1
  O  O12  1  0.00000000  0.00000000  0.60164100  1
  O  O13  1  0.50000000  0.50000000  0.69446700  1
  O  O14  1  0.00000000  0.00000000  0.80264300  1
  O  O15  1  0.50000000  0.50000000  0.89062700  1
  O  O16  1  0.50000000  0.50000000  0.00000000  1
  O  O17  1  0.50000000  0.50000000  0.10937300  1
  O  O18  1  0.00000000  0.00000000  0.09809200  1
  O  O19  1  0.00000000  0.00000000  0.19735700  1
  O  O20  1  0.50000000  0.50000000  0.20760300  1
  O  O21  1  0.50000000  0.50000000  0.30553300  1
  O  O22  1  0.00000000  0.00000000  0.29754900  1
  O  O23  1  0.50000000  0.50000000  0.40293300  1
  O  O24  1  0.00000000  0.00000000  0.50000000  1
  O  O25  1  0.50000000  0.50000000  0.59706700  1
  O  O26  1  0.00000000  0.00000000  0.70245100  1
  O  O27  1  0.50000000  0.50000000  0.79239700  1
  O  O28  1  0.00000000  0.00000000  0.90190800  1
