# generated using pymatgen
data_CIF5
_symmetry_space_group_name_H-M   'P 1'
_cell_length_a   8.63483500
_cell_length_b   8.69796176
_cell_length_c   8.98919813
_cell_angle_alpha   96.88704795
_cell_angle_beta   115.74074779
_cell_angle_gamma   114.59346235
_symmetry_Int_Tables_number   1
_chemical_formula_structural   CIF5
_chemical_formula_sum   'C4 I4 F20'
_cell_volume   514.37093675
_cell_formula_units_Z   4
loop_
 _symmetry_equiv_pos_site_id
 _symmetry_equiv_pos_as_xyz
  1  'x, y, z'
loop_
 _atom_site_type_symbol
 _atom_site_label
 _atom_site_symmetry_multiplicity
 _atom_site_fract_x
 _atom_site_fract_y
 _atom_site_fract_z
 _atom_site_occupancy
  C  C0  1  0.76850800  0.54021500  0.63332100  1
  C  C1  1  0.74379000  0.24914000  0.15255500  1
  C  C2  1  0.24094300  0.36629000  0.74579700  1
  C  C3  1  0.31368900  0.96915900  0.52285800  1
  I  I4  1  0.77680300  0.79949300  0.61320200  1
  I  I5  1  0.28387000  0.89928100  0.25783600  1
  I  I6  1  0.25631400  0.39434000  0.00020900  1
  I  I7  1  0.76268100  0.00170600  0.14604100  1
  F  F8  1  0.96191200  0.19484800  0.85246100  1
  F  F9  1  0.91906400  0.55760000  0.78046400  1
  F  F10  1  0.49431900  0.62195500  0.42273500  1
  F  F11  1  0.58118600  0.98970700  0.41043300  1
  F  F12  1  0.54959600  0.20023900  0.05686400  1
  F  F13  1  0.54299600  0.58036400  0.09347500  1
  F  F14  1  0.05672300  0.91027800  0.81501700  1
  F  F15  1  0.46092900  0.86979500  0.04590700  1
  F  F16  1  0.98997700  0.81501000  0.14774400  1
  F  F17  1  0.84481100  0.34433600  0.08524400  1
  F  F18  1  0.05261900  0.25931800  0.60696300  1
  F  F19  1  0.33067300  0.52324200  0.73017600  1
  F  F20  1  0.20667600  0.04663800  0.51626300  1
  F  F21  1  0.24698800  0.81941700  0.56005500  1
  F  F22  1  0.85579100  0.74595900  0.44957600  1
  F  F23  1  0.67311000  0.80705600  0.76816200  1
  F  F24  1  0.82791800  0.35287700  0.32065100  1
  F  F25  1  0.50814800  0.08703700  0.64761500  1
  F  F26  1  0.59272300  0.40779400  0.59505000  1
  F  F27  1  0.05544200  0.18720800  0.25082600  1
