# generated using pymatgen
data_InCuSe2
_symmetry_space_group_name_H-M   'P 1'
_cell_length_a   6.71741791
_cell_length_b   6.71741791
_cell_length_c   6.71741791
_cell_angle_alpha   131.12794846
_cell_angle_beta   131.12794846
_cell_angle_gamma   71.60987450
_symmetry_Int_Tables_number   1
_chemical_formula_structural   InCuSe2
_chemical_formula_sum   'In2 Cu2 Se4'
_cell_volume   168.27429898
_cell_formula_units_Z   2
loop_
 _symmetry_equiv_pos_site_id
 _symmetry_equiv_pos_as_xyz
  1  'x, y, z'
loop_
 _atom_site_type_symbol
 _atom_site_label
 _atom_site_symmetry_multiplicity
 _atom_site_fract_x
 _atom_site_fract_y
 _atom_site_fract_z
 _atom_site_occupancy
  In  In0  1  0.00000000  0.00000000  0.00000000  1
  In  In1  1  0.75000000  0.25000000  0.50000000  1
  Cu  Cu2  1  0.50000000  0.50000000  0.00000000  1
  Cu  Cu3  1  0.25000000  0.75000000  0.50000000  1
  Se  Se4  1  0.01087700  0.51087700  0.50000000  1
  Se  Se5  1  0.73912300  0.73912300  0.00000000  1
  Se  Se6  1  0.48912300  0.98912300  0.50000000  1
  Se  Se7  1  0.26087700  0.26087700  0.00000000  1
