# generated using pymatgen
data_Ba11(Ta3S13)2
_symmetry_space_group_name_H-M   'P 1'
_cell_length_a   6.91814200
_cell_length_b   12.08466736
_cell_length_c   14.52959557
_cell_angle_alpha   98.14251036
_cell_angle_beta   103.72916279
_cell_angle_gamma   89.56432728
_symmetry_Int_Tables_number   1
_chemical_formula_structural   Ba11(Ta3S13)2
_chemical_formula_sum   'Ba11 Ta6 S26'
_cell_volume   1167.69434752
_cell_formula_units_Z   1
loop_
 _symmetry_equiv_pos_site_id
 _symmetry_equiv_pos_as_xyz
  1  'x, y, z'
loop_
 _atom_site_type_symbol
 _atom_site_label
 _atom_site_symmetry_multiplicity
 _atom_site_fract_x
 _atom_site_fract_y
 _atom_site_fract_z
 _atom_site_occupancy
  Ba  Ba0  1  0.90164200  0.96457900  0.79140200  1
  Ba  Ba1  1  0.69581600  0.89651200  0.39130600  1
  Ba  Ba2  1  0.43265500  0.83211400  0.00137300  1
  Ba  Ba3  1  0.38932800  0.46508700  0.79155900  1
  Ba  Ba4  1  0.19732800  0.39938100  0.39155600  1
  Ba  Ba5  1  0.98552400  0.37066500  0.00282400  1
  Ba  Ba6  1  0.80495300  0.60566300  0.61017000  1
  Ba  Ba7  1  0.59792700  0.53258800  0.21024100  1
  Ba  Ba8  1  0.47877600  0.17428600  0.99647300  1
  Ba  Ba9  1  0.30237700  0.09860600  0.60870900  1
  Ba  Ba10  1  0.10896100  0.03646500  0.20814400  1
  Ta  Ta11  1  0.37339300  0.78807400  0.73495300  1
  Ta  Ta12  1  0.25358300  0.74758800  0.49956100  1
  Ta  Ta13  1  0.11775000  0.71648800  0.26525800  1
  Ta  Ta14  1  0.85915500  0.28903600  0.73148700  1
  Ta  Ta15  1  0.75398600  0.24884100  0.49914500  1
  Ta  Ta16  1  0.63362300  0.21093000  0.26588500  1
  S  S17  1  0.65590400  0.71738400  0.82099500  1
  S  S18  1  0.14398000  0.71832100  0.80857600  1
  S  S19  1  0.41762600  0.96918100  0.81875900  1
  S  S20  1  0.30306900  0.60511500  0.60529600  1
  S  S21  1  0.54601100  0.84982300  0.60684200  1
  S  S22  1  0.05977200  0.85178300  0.60596600  1
  S  S23  1  0.44759700  0.65159600  0.39878000  1
  S  S24  1  0.19172700  0.89413500  0.39449800  1
  S  S25  1  0.95065500  0.65507700  0.39612700  1
  S  S26  1  0.09607300  0.52928600  0.19919300  1
  S  S27  1  0.35365200  0.78337700  0.19576000  1
  S  S28  1  0.83142500  0.78234100  0.17954600  1
  S  S29  1  0.15762800  0.21998700  0.80773300  1
  S  S30  1  0.66213500  0.21883600  0.81812600  1
  S  S31  1  0.89724100  0.47276600  0.80672700  1
  S  S32  1  0.79922600  0.10477600  0.60396000  1
  S  S33  1  0.04630300  0.34828400  0.60219100  1
  S  S34  1  0.55323400  0.34656900  0.60301800  1
  S  S35  1  0.94257100  0.14973800  0.39322500  1
  S  S36  1  0.45465100  0.14980000  0.39284300  1
  S  S37  1  0.69817500  0.39428800  0.39414400  1
  S  S38  1  0.59933200  0.03094100  0.18054400  1
  S  S39  1  0.84184800  0.27946100  0.18192300  1
  S  S40  1  0.33685100  0.28218800  0.18902700  1
  S  S41  1  0.49309700  0.43499000  0.00031900  1
  S  S42  1  0.10783700  0.02615500  0.99953900  1
