# generated using pymatgen
data_Tm2Zr8O19
_symmetry_space_group_name_H-M   'P 1'
_cell_length_a   3.63333900
_cell_length_b   3.63333900
_cell_length_c   25.64021500
_cell_angle_alpha   90.00000000
_cell_angle_beta   90.00000000
_cell_angle_gamma   90.00000000
_symmetry_Int_Tables_number   1
_chemical_formula_structural   Tm2Zr8O19
_chemical_formula_sum   'Tm2 Zr8 O19'
_cell_volume   338.48038294
_cell_formula_units_Z   1
loop_
 _symmetry_equiv_pos_site_id
 _symmetry_equiv_pos_as_xyz
  1  'x, y, z'
loop_
 _atom_site_type_symbol
 _atom_site_label
 _atom_site_symmetry_multiplicity
 _atom_site_fract_x
 _atom_site_fract_y
 _atom_site_fract_z
 _atom_site_occupancy
  Tm  Tm0  1  0.00000000  0.50000000  0.94417800  1
  Tm  Tm1  1  0.50000000  0.00000000  0.05582200  1
  Zr  Zr2  1  0.00000000  0.50000000  0.15139800  1
  Zr  Zr3  1  0.50000000  0.00000000  0.25110200  1
  Zr  Zr4  1  0.00000000  0.50000000  0.35063300  1
  Zr  Zr5  1  0.50000000  0.00000000  0.45016500  1
  Zr  Zr6  1  0.00000000  0.50000000  0.54983500  1
  Zr  Zr7  1  0.50000000  0.00000000  0.64936700  1
  Zr  Zr8  1  0.00000000  0.50000000  0.74889800  1
  Zr  Zr9  1  0.50000000  0.00000000  0.84860200  1
  O  O10  1  0.00000000  0.00000000  0.39806200  1
  O  O11  1  0.50000000  0.50000000  0.50000000  1
  O  O12  1  0.00000000  0.00000000  0.60193800  1
  O  O13  1  0.50000000  0.50000000  0.69534900  1
  O  O14  1  0.00000000  0.00000000  0.80407100  1
  O  O15  1  0.50000000  0.50000000  0.89248900  1
  O  O16  1  0.00000000  0.00000000  0.90412300  1
  O  O17  1  0.50000000  0.50000000  0.00000000  1
  O  O18  1  0.50000000  0.50000000  0.10751100  1
  O  O19  1  0.00000000  0.00000000  0.19592900  1
  O  O20  1  0.00000000  0.00000000  0.09587700  1
  O  O21  1  0.50000000  0.50000000  0.30465100  1
  O  O22  1  0.50000000  0.50000000  0.20636300  1
  O  O23  1  0.00000000  0.00000000  0.29674700  1
  O  O24  1  0.50000000  0.50000000  0.40240300  1
  O  O25  1  0.00000000  0.00000000  0.50000000  1
  O  O26  1  0.50000000  0.50000000  0.59759700  1
  O  O27  1  0.00000000  0.00000000  0.70325300  1
  O  O28  1  0.50000000  0.50000000  0.79363700  1
