# generated using pymatgen
data_Dy3NbO7
_symmetry_space_group_name_H-M   'P 1'
_cell_length_a   5.38487000
_cell_length_b   7.58076906
_cell_length_c   8.28812511
_cell_angle_alpha   63.75184294
_cell_angle_beta   88.07841438
_cell_angle_gamma   88.95573806
_symmetry_Int_Tables_number   1
_chemical_formula_structural   Dy3NbO7
_chemical_formula_sum   'Dy6 Nb2 O14'
_cell_volume   303.27393990
_cell_formula_units_Z   2
loop_
 _symmetry_equiv_pos_site_id
 _symmetry_equiv_pos_as_xyz
  1  'x, y, z'
loop_
 _atom_site_type_symbol
 _atom_site_label
 _atom_site_symmetry_multiplicity
 _atom_site_fract_x
 _atom_site_fract_y
 _atom_site_fract_z
 _atom_site_occupancy
  Dy  Dy0  1  0.04148000  0.97588700  0.98636300  1
  Dy  Dy1  1  0.99601200  0.50367900  0.98106400  1
  Dy  Dy2  1  0.55522100  0.90007700  0.74473900  1
  Dy  Dy3  1  0.49043900  0.38733500  0.72713300  1
  Dy  Dy4  1  0.50042900  0.60792800  0.20907300  1
  Dy  Dy5  1  0.46380400  0.10337300  0.25230600  1
  Nb  Nb6  1  0.98771000  0.26317200  0.51536600  1
  Nb  Nb7  1  0.00905500  0.77635000  0.46694200  1
  O  O8  1  0.77388200  0.75475500  0.99290200  1
  O  O9  1  0.24388400  0.13899700  0.69834900  1
  O  O10  1  0.71102000  0.44351600  0.46258700  1
  O  O11  1  0.24711700  0.25655000  0.98125000  1
  O  O12  1  0.27262200  0.73189300  0.95612000  1
  O  O13  1  0.25149300  0.84607000  0.24032400  1
  O  O14  1  0.78336200  0.63986100  0.69920100  1
  O  O15  1  0.81498100  0.05051200  0.49381100  1
  O  O16  1  0.27702100  0.89312300  0.53081200  1
  O  O17  1  0.18840300  0.34832400  0.29588800  1
  O  O18  1  0.67318400  0.36786200  0.13133300  1
  O  O19  1  0.75001400  0.14974100  0.78509200  1
  O  O20  1  0.16432300  0.51805400  0.54257700  1
  O  O21  1  0.77340200  0.88151100  0.27060300  1
