# generated using pymatgen
data_ScCuSe2
_symmetry_space_group_name_H-M   'P 1'
_cell_length_a   7.78126300
_cell_length_b   9.27016000
_cell_length_c   12.74505731
_cell_angle_alpha   46.75252111
_cell_angle_beta   90.00000000
_cell_angle_gamma   90.00000000
_symmetry_Int_Tables_number   1
_chemical_formula_structural   ScCuSe2
_chemical_formula_sum   'Sc8 Cu8 Se16'
_cell_volume   669.65284926
_cell_formula_units_Z   8
loop_
 _symmetry_equiv_pos_site_id
 _symmetry_equiv_pos_as_xyz
  1  'x, y, z'
loop_
 _atom_site_type_symbol
 _atom_site_label
 _atom_site_symmetry_multiplicity
 _atom_site_fract_x
 _atom_site_fract_y
 _atom_site_fract_z
 _atom_site_occupancy
  Sc  Sc0  1  0.50038500  0.99480000  0.76112200  1
  Sc  Sc1  1  0.74206000  0.49890700  0.00338800  1
  Sc  Sc2  1  0.75794000  0.49890700  0.50338800  1
  Sc  Sc3  1  0.00038500  0.00520000  0.73887800  1
  Sc  Sc4  1  0.99961500  0.99480000  0.26112200  1
  Sc  Sc5  1  0.24206000  0.50109300  0.49661200  1
  Sc  Sc6  1  0.25794000  0.50109300  0.99661200  1
  Sc  Sc7  1  0.49961500  0.00520000  0.23887800  1
  Cu  Cu8  1  0.49922600  0.66620500  0.10705600  1
  Cu  Cu9  1  0.74916700  0.16534600  0.35857500  1
  Cu  Cu10  1  0.99922600  0.33379500  0.39294400  1
  Cu  Cu11  1  0.24916700  0.83465400  0.14142500  1
  Cu  Cu12  1  0.75083300  0.16534600  0.85857500  1
  Cu  Cu13  1  0.00077400  0.66620500  0.60705600  1
  Cu  Cu14  1  0.25083300  0.83465400  0.64142500  1
  Cu  Cu15  1  0.50077400  0.33379500  0.89294400  1
  Se  Se16  1  0.49493500  0.32871200  0.20840000  1
  Se  Se17  1  0.75528000  0.83033000  0.95822300  1
  Se  Se18  1  0.25528000  0.16967000  0.54177700  1
  Se  Se19  1  0.00186100  0.33796300  0.20016400  1
  Se  Se20  1  0.50186100  0.66203700  0.29983600  1
  Se  Se21  1  0.24206200  0.83351900  0.95135200  1
  Se  Se22  1  0.74206200  0.16648100  0.54864800  1
  Se  Se23  1  0.99493500  0.67128800  0.29160000  1
  Se  Se24  1  0.00506500  0.32871200  0.70840000  1
  Se  Se25  1  0.25793800  0.83351900  0.45135200  1
  Se  Se26  1  0.75793800  0.16648100  0.04864800  1
  Se  Se27  1  0.49813900  0.33796300  0.70016400  1
  Se  Se28  1  0.99813900  0.66203700  0.79983600  1
  Se  Se29  1  0.74472000  0.83033000  0.45822300  1
  Se  Se30  1  0.24472000  0.16967000  0.04177700  1
  Se  Se31  1  0.50506500  0.67128800  0.79160000  1
