# generated using pymatgen
data_Sr4LaCl11
_symmetry_space_group_name_H-M   'P 1'
_cell_length_a   5.01770500
_cell_length_b   5.02469912
_cell_length_c   35.66858820
_cell_angle_alpha   90.53927789
_cell_angle_beta   90.00697150
_cell_angle_gamma   90.03826789
_symmetry_Int_Tables_number   1
_chemical_formula_structural   Sr4LaCl11
_chemical_formula_sum   'Sr8 La2 Cl22'
_cell_volume   899.25273710
_cell_formula_units_Z   2
loop_
 _symmetry_equiv_pos_site_id
 _symmetry_equiv_pos_as_xyz
  1  'x, y, z'
loop_
 _atom_site_type_symbol
 _atom_site_label
 _atom_site_symmetry_multiplicity
 _atom_site_fract_x
 _atom_site_fract_y
 _atom_site_fract_z
 _atom_site_occupancy
  Sr  Sr0  1  0.00265500  0.99717300  0.00081300  1
  Sr  Sr1  1  0.49784500  0.49750800  0.09993500  1
  Sr  Sr2  1  0.99966300  0.99947700  0.19962800  1
  Sr  Sr3  1  0.49773300  0.49942700  0.29966400  1
  Sr  Sr4  1  0.99671500  0.00045400  0.39966000  1
  Sr  Sr5  1  0.49926100  0.50266800  0.49978400  1
  Sr  Sr6  1  0.99875000  0.00275600  0.59960000  1
  Sr  Sr7  1  0.50562100  0.50121200  0.69891600  1
  La  La8  1  0.98720100  0.98158400  0.80265100  1
  La  La9  1  0.49508100  0.52357500  0.89729500  1
  Cl  Cl10  1  0.00103100  0.49950300  0.24967900  1
  Cl  Cl11  1  0.49745700  0.00008400  0.34958400  1
  Cl  Cl12  1  0.99890200  0.50123700  0.44965800  1
  Cl  Cl13  1  0.49717800  0.00368300  0.55003300  1
  Cl  Cl14  1  0.00347300  0.50017900  0.64869700  1
  Cl  Cl15  1  0.50256000  0.00229700  0.74696100  1
  Cl  Cl16  1  0.00697400  0.50287800  0.74653000  1
  Cl  Cl17  1  0.51747900  0.51222200  0.80313900  1
  Cl  Cl18  1  0.00744200  0.48662800  0.84982300  1
  Cl  Cl19  1  0.49926500  0.01003500  0.84986000  1
  Cl  Cl20  1  0.00251800  0.98019300  0.89663000  1
  Cl  Cl21  1  0.50254500  0.99577200  0.95312300  1
  Cl  Cl22  1  0.00550800  0.49493300  0.95299500  1
  Cl  Cl23  1  0.00060600  0.49985100  0.05077500  1
  Cl  Cl24  1  0.49985900  0.99879900  0.05061600  1
  Cl  Cl25  1  0.49583400  0.99857700  0.14954400  1
  Cl  Cl26  1  0.99728600  0.49837500  0.14968000  1
  Cl  Cl27  1  0.49987800  0.00136000  0.24947000  1
  Cl  Cl28  1  0.99766400  0.50092900  0.34971000  1
  Cl  Cl29  1  0.50081700  0.00301400  0.44989600  1
  Cl  Cl30  1  0.99647800  0.50334500  0.54961300  1
  Cl  Cl31  1  0.50205200  0.99993300  0.64921900  1
