# generated using pymatgen
data_Na3SrTiNb3O12
_symmetry_space_group_name_H-M   'P 1'
_cell_length_a   8.01393400
_cell_length_b   7.92616200
_cell_length_c   11.19535826
_cell_angle_alpha   45.08755792
_cell_angle_beta   90.00000000
_cell_angle_gamma   90.00000000
_symmetry_Int_Tables_number   1
_chemical_formula_structural   Na3SrTiNb3O12
_chemical_formula_sum   'Na6 Sr2 Ti2 Nb6 O24'
_cell_volume   503.61002685
_cell_formula_units_Z   2
loop_
 _symmetry_equiv_pos_site_id
 _symmetry_equiv_pos_as_xyz
  1  'x, y, z'
loop_
 _atom_site_type_symbol
 _atom_site_label
 _atom_site_symmetry_multiplicity
 _atom_site_fract_x
 _atom_site_fract_y
 _atom_site_fract_z
 _atom_site_occupancy
  Na  Na0  1  0.23633600  0.00000000  0.75000000  1
  Na  Na1  1  0.23215500  0.50000000  0.25000000  1
  Na  Na2  1  0.76752500  0.50000000  0.25000000  1
  Na  Na3  1  0.23247500  0.50000000  0.75000000  1
  Na  Na4  1  0.76784500  0.50000000  0.75000000  1
  Na  Na5  1  0.76366400  0.00000000  0.25000000  1
  Sr  Sr6  1  0.76136700  0.00000000  0.75000000  1
  Sr  Sr7  1  0.23863300  0.00000000  0.25000000  1
  Ti  Ti8  1  0.00000000  0.00000000  0.50000000  1
  Ti  Ti9  1  0.00000000  0.00000000  0.00000000  1
  Nb  Nb10  1  0.00000000  0.50000000  0.00000000  1
  Nb  Nb11  1  0.50000000  0.50000000  0.00000000  1
  Nb  Nb12  1  0.50000000  0.00000000  0.50000000  1
  Nb  Nb13  1  0.50000000  0.00000000  0.00000000  1
  Nb  Nb14  1  0.00000000  0.50000000  0.50000000  1
  Nb  Nb15  1  0.50000000  0.50000000  0.50000000  1
  O  O16  1  0.00222200  0.72722100  0.02459300  1
  O  O17  1  0.00222200  0.27277900  0.47540700  1
  O  O18  1  0.49184100  0.79666600  0.95263700  1
  O  O19  1  0.00458200  0.78067200  0.74807300  1
  O  O20  1  0.49927500  0.29316600  0.24938000  1
  O  O21  1  0.74902200  0.51808000  0.99249900  1
  O  O22  1  0.75045400  0.00298200  0.50707400  1
  O  O23  1  0.25097800  0.48192000  0.00750100  1
  O  O24  1  0.24954600  0.99701800  0.49292600  1
  O  O25  1  0.50072500  0.70683400  0.75062000  1
  O  O26  1  0.99541800  0.21932800  0.25192700  1
  O  O27  1  0.99777800  0.27277900  0.97540700  1
  O  O28  1  0.50815900  0.20333400  0.04736300  1
  O  O29  1  0.99777800  0.72722100  0.52459300  1
  O  O30  1  0.50815900  0.79666600  0.45263700  1
  O  O31  1  0.99541800  0.78067200  0.24807300  1
  O  O32  1  0.50072500  0.29316600  0.74938000  1
  O  O33  1  0.24954600  0.00298200  0.00707400  1
  O  O34  1  0.25097800  0.51808000  0.49249900  1
  O  O35  1  0.75045400  0.99701800  0.99292600  1
  O  O36  1  0.74902200  0.48192000  0.50750100  1
  O  O37  1  0.49927500  0.70683400  0.25062000  1
  O  O38  1  0.00458200  0.21932800  0.75192700  1
  O  O39  1  0.49184100  0.20333400  0.54736300  1
