# generated using pymatgen
data_Li3Nd3(TeO6)2
_symmetry_space_group_name_H-M   'P 1'
_cell_length_a   11.00519276
_cell_length_b   11.00519276
_cell_length_c   11.00519276
_cell_angle_alpha   109.47122063
_cell_angle_beta   109.47122063
_cell_angle_gamma   109.47122063
_symmetry_Int_Tables_number   1
_chemical_formula_structural   Li3Nd3(TeO6)2
_chemical_formula_sum   'Li12 Nd12 Te8 O48'
_cell_volume   1026.05601366
_cell_formula_units_Z   4
loop_
 _symmetry_equiv_pos_site_id
 _symmetry_equiv_pos_as_xyz
  1  'x, y, z'
loop_
 _atom_site_type_symbol
 _atom_site_label
 _atom_site_symmetry_multiplicity
 _atom_site_fract_x
 _atom_site_fract_y
 _atom_site_fract_z
 _atom_site_occupancy
  Li  Li0  1  0.75000000  0.87500000  0.12500000  1
  Li  Li1  1  0.87500000  0.25000000  0.12500000  1
  Li  Li2  1  0.62500000  0.37500000  0.25000000  1
  Li  Li3  1  0.12500000  0.87500000  0.25000000  1
  Li  Li4  1  0.62500000  0.75000000  0.37500000  1
  Li  Li5  1  0.25000000  0.62500000  0.37500000  1
  Li  Li6  1  0.75000000  0.37500000  0.62500000  1
  Li  Li7  1  0.37500000  0.25000000  0.62500000  1
  Li  Li8  1  0.87500000  0.12500000  0.75000000  1
  Li  Li9  1  0.37500000  0.62500000  0.75000000  1
  Li  Li10  1  0.12500000  0.75000000  0.87500000  1
  Li  Li11  1  0.25000000  0.12500000  0.87500000  1
  Nd  Nd12  1  0.12500000  0.37500000  0.75000000  1
  Nd  Nd13  1  0.87500000  0.75000000  0.62500000  1
  Nd  Nd14  1  0.62500000  0.25000000  0.87500000  1
  Nd  Nd15  1  0.25000000  0.37500000  0.12500000  1
  Nd  Nd16  1  0.62500000  0.87500000  0.75000000  1
  Nd  Nd17  1  0.25000000  0.87500000  0.62500000  1
  Nd  Nd18  1  0.75000000  0.12500000  0.37500000  1
  Nd  Nd19  1  0.37500000  0.12500000  0.25000000  1
  Nd  Nd20  1  0.75000000  0.62500000  0.87500000  1
  Nd  Nd21  1  0.37500000  0.75000000  0.12500000  1
  Nd  Nd22  1  0.12500000  0.25000000  0.37500000  1
  Nd  Nd23  1  0.87500000  0.62500000  0.25000000  1
  Te  Te24  1  0.50000000  0.50000000  0.00000000  1
  Te  Te25  1  0.50000000  0.00000000  0.00000000  1
  Te  Te26  1  0.00000000  0.50000000  0.00000000  1
  Te  Te27  1  0.00000000  0.00000000  0.00000000  1
  Te  Te28  1  0.50000000  0.50000000  0.50000000  1
  Te  Te29  1  0.00000000  0.50000000  0.50000000  1
  Te  Te30  1  0.50000000  0.00000000  0.50000000  1
  Te  Te31  1  0.00000000  0.00000000  0.50000000  1
  O  O32  1  0.07629500  0.88305200  0.40612900  1
  O  O33  1  0.09387100  0.61694800  0.42370500  1
  O  O34  1  0.82983400  0.80675700  0.42370500  1
  O  O35  1  0.38305200  0.57629500  0.90612900  1
  O  O36  1  0.82983400  0.52307700  0.40612900  1
  O  O37  1  0.09387100  0.97692300  0.67016600  1
  O  O38  1  0.11694800  0.59387100  0.92370500  1
  O  O39  1  0.30675700  0.32983400  0.92370500  1
  O  O40  1  0.07629500  0.69324300  0.67016600  1
  O  O41  1  0.61694800  0.69324300  0.52307700  1
  O  O42  1  0.67016600  0.07629500  0.69324300  1
  O  O43  1  0.42370500  0.09387100  0.61694800  1
  O  O44  1  0.40612900  0.82983400  0.52307700  1
  O  O45  1  0.02307700  0.32983400  0.90612900  1
  O  O46  1  0.47692300  0.59387100  0.17016600  1
  O  O47  1  0.88305200  0.97692300  0.80675700  1
  O  O48  1  0.69324300  0.52307700  0.61694800  1
  O  O49  1  0.19324300  0.57629500  0.17016600  1
  O  O50  1  0.19324300  0.11694800  0.02307700  1
  O  O51  1  0.57629500  0.17016600  0.19324300  1
  O  O52  1  0.59387100  0.92370500  0.11694800  1
  O  O53  1  0.32983400  0.90612900  0.02307700  1
  O  O54  1  0.97692300  0.80675700  0.88305200  1
  O  O55  1  0.52307700  0.61694800  0.69324300  1
  O  O56  1  0.47692300  0.38305200  0.30675700  1
  O  O57  1  0.02307700  0.19324300  0.11694800  1
  O  O58  1  0.67016600  0.09387100  0.97692300  1
  O  O59  1  0.40612900  0.07629500  0.88305200  1
  O  O60  1  0.42370500  0.82983400  0.80675700  1
  O  O61  1  0.80675700  0.88305200  0.97692300  1
  O  O62  1  0.80675700  0.42370500  0.82983400  1
  O  O63  1  0.30675700  0.47692300  0.38305200  1
  O  O64  1  0.11694800  0.02307700  0.19324300  1
  O  O65  1  0.52307700  0.40612900  0.82983400  1
  O  O66  1  0.97692300  0.67016600  0.09387100  1
  O  O67  1  0.59387100  0.17016600  0.47692300  1
  O  O68  1  0.57629500  0.90612900  0.38305200  1
  O  O69  1  0.32983400  0.92370500  0.30675700  1
  O  O70  1  0.38305200  0.30675700  0.47692300  1
  O  O71  1  0.92370500  0.30675700  0.32983400  1
  O  O72  1  0.69324300  0.67016600  0.07629500  1
  O  O73  1  0.88305200  0.40612900  0.07629500  1
  O  O74  1  0.90612900  0.02307700  0.32983400  1
  O  O75  1  0.17016600  0.47692300  0.59387100  1
  O  O76  1  0.61694800  0.42370500  0.09387100  1
  O  O77  1  0.17016600  0.19324300  0.57629500  1
  O  O78  1  0.90612900  0.38305200  0.57629500  1
  O  O79  1  0.92370500  0.11694800  0.59387100  1
