# generated using pymatgen
data_Na8Al11Si13(AgO16)3
_symmetry_space_group_name_H-M   'P 1'
_cell_length_a   12.06695100
_cell_length_b   12.39927361
_cell_length_c   12.77223808
_cell_angle_alpha   90.15388435
_cell_angle_beta   91.48511853
_cell_angle_gamma   90.04370446
_symmetry_Int_Tables_number   1
_chemical_formula_structural   Na8Al11Si13(AgO16)3
_chemical_formula_sum   'Na8 Al11 Si13 Ag3 O48'
_cell_volume   1910.35101234
_cell_formula_units_Z   1
loop_
 _symmetry_equiv_pos_site_id
 _symmetry_equiv_pos_as_xyz
  1  'x, y, z'
loop_
 _atom_site_type_symbol
 _atom_site_label
 _atom_site_symmetry_multiplicity
 _atom_site_fract_x
 _atom_site_fract_y
 _atom_site_fract_z
 _atom_site_occupancy
  Na  Na0  1  0.19585200  0.21076600  0.79240700  1
  Na  Na1  1  0.55633300  0.99869900  0.38604700  1
  Na  Na2  1  0.99757600  0.38903500  0.43192500  1
  Na  Na3  1  0.00204500  0.60464400  0.40785300  1
  Na  Na4  1  0.81745700  0.18973900  0.21381900  1
  Na  Na5  1  0.19323500  0.19001500  0.21474400  1
  Na  Na6  1  0.18783000  0.81208500  0.21837000  1
  Na  Na7  1  0.82330900  0.81508700  0.21689900  1
  Al  Al8  1  0.99791600  0.36904300  0.81986300  1
  Al  Al9  1  0.79584000  0.00164300  0.62021100  1
  Al  Al10  1  0.99720300  0.81068700  0.62604700  1
  Al  Al11  1  0.20682400  0.99966900  0.38843200  1
  Al  Al12  1  0.00680800  0.17542900  0.38076800  1
  Al  Al13  1  0.80405600  0.00021500  0.38534600  1
  Al  Al14  1  0.00658400  0.82060000  0.38626000  1
  Al  Al15  1  0.36594400  0.99584700  0.17538100  1
  Al  Al16  1  0.64378600  0.99604400  0.16166300  1
  Al  Al17  1  0.00237400  0.37323700  0.18577200  1
  Al  Al18  1  0.00156100  0.63138800  0.18011800  1
  Si  Si19  1  0.36681800  0.18401500  0.00785100  1
  Si  Si20  1  0.18767800  0.37191400  0.00561100  1
  Si  Si21  1  0.63257600  0.18666000  0.00298500  1
  Si  Si22  1  0.18760500  0.62588800  0.00366700  1
  Si  Si23  1  0.81298700  0.37044400  0.99605700  1
  Si  Si24  1  0.36605200  0.81649000  0.99973600  1
  Si  Si25  1  0.81252400  0.62763000  0.99230500  1
  Si  Si26  1  0.63277000  0.81455000  0.99197300  1
  Si  Si27  1  0.62555600  0.00605600  0.82399000  1
  Si  Si28  1  0.99673200  0.62631900  0.82064300  1
  Si  Si29  1  0.36350700  0.00632000  0.83068700  1
  Si  Si30  1  0.18927000  0.00082000  0.63181400  1
  Si  Si31  1  0.00105600  0.18415000  0.62742200  1
  Ag  Ag32  1  0.81064900  0.81517500  0.79423400  1
  Ag  Ag33  1  0.81118300  0.18704900  0.79645500  1
  Ag  Ag34  1  0.18327800  0.80194800  0.80334700  1
  O  O35  1  0.30189100  0.29912100  0.99894900  1
  O  O36  1  0.22491200  0.49972800  0.00626000  1
  O  O37  1  0.69504400  0.30296000  0.99371500  1
  O  O38  1  0.29702600  0.70284200  0.98297600  1
  O  O39  1  0.49898600  0.79002200  0.99537100  1
  O  O40  1  0.65388700  0.11551500  0.89469400  1
  O  O41  1  0.10703400  0.64719200  0.89922000  1
  O  O42  1  0.88446900  0.65988100  0.88748400  1
  O  O43  1  0.65531800  0.89125300  0.88662500  1
  O  O44  1  0.33475100  0.11696200  0.89676600  1
  O  O45  1  0.11816300  0.34380300  0.89796100  1
  O  O46  1  0.87761700  0.33356200  0.88991500  1
  O  O47  1  0.33465600  0.89394800  0.89453900  1
  O  O48  1  0.49209200  0.00609000  0.80016500  1
  O  O49  1  0.99018100  0.50328700  0.78148600  1
  O  O50  1  0.28564200  0.01269300  0.72737100  1
  O  O51  1  0.01337300  0.28056200  0.71497200  1
  O  O52  1  0.00818100  0.71265900  0.72845000  1
  O  O53  1  0.69556900  0.01446300  0.72089900  1
  O  O54  1  0.11338300  0.10997500  0.65486400  1
  O  O55  1  0.88692700  0.11637300  0.64649700  1
  O  O56  1  0.11803600  0.89247100  0.65820000  1
  O  O57  1  0.87654800  0.88602700  0.65065500  1
  O  O58  1  0.00965600  0.23608700  0.51150300  1
  O  O59  1  0.72668900  0.00593300  0.50053200  1
  O  O60  1  0.24924800  0.00327300  0.52335700  1
  O  O61  1  0.00883200  0.74650800  0.50630300  1
  O  O62  1  0.13283400  0.11708500  0.36028900  1
  O  O63  1  0.87991800  0.11640100  0.36300500  1
  O  O64  1  0.13123000  0.88301400  0.36742000  1
  O  O65  1  0.88194500  0.88491900  0.37294700  1
  O  O66  1  0.31340800  0.99594300  0.29819600  1
  O  O67  1  0.00014200  0.28597700  0.29141400  1
  O  O68  1  0.99908400  0.72499200  0.27993500  1
  O  O69  1  0.70731100  0.99261100  0.28158600  1
  O  O70  1  0.50579500  0.99501900  0.17831300  1
  O  O71  1  0.00166300  0.50372800  0.24235200  1
  O  O72  1  0.68587100  0.11812700  0.09848600  1
  O  O73  1  0.12464900  0.66010400  0.10859100  1
  O  O74  1  0.88169000  0.65855800  0.09806100  1
  O  O75  1  0.68583500  0.87798000  0.09115600  1
  O  O76  1  0.32136700  0.11447000  0.10361200  1
  O  O77  1  0.12306300  0.34248700  0.11185200  1
  O  O78  1  0.88332200  0.34419100  0.10299300  1
  O  O79  1  0.32163000  0.87745500  0.10152400  1
  O  O80  1  0.49961000  0.20978900  0.00986000  1
  O  O81  1  0.78296100  0.49942600  0.98690200  1
  O  O82  1  0.69738700  0.69883400  0.97787600  1
