# generated using pymatgen
data_PCN2Cl3
_symmetry_space_group_name_H-M   'P 1'
_cell_length_a   9.93951200
_cell_length_b   15.72010900
_cell_length_c   18.40951070
_cell_angle_alpha   67.52009546
_cell_angle_beta   90.00000000
_cell_angle_gamma   90.00000000
_symmetry_Int_Tables_number   1
_chemical_formula_structural   PCN2Cl3
_chemical_formula_sum   'P16 C16 N32 Cl48'
_cell_volume   2657.91610705
_cell_formula_units_Z   16
loop_
 _symmetry_equiv_pos_site_id
 _symmetry_equiv_pos_as_xyz
  1  'x, y, z'
loop_
 _atom_site_type_symbol
 _atom_site_label
 _atom_site_symmetry_multiplicity
 _atom_site_fract_x
 _atom_site_fract_y
 _atom_site_fract_z
 _atom_site_occupancy
  P  P0  1  0.13122900  0.59466700  0.33989300  1
  P  P1  1  0.43865300  0.26646200  0.59646100  1
  P  P2  1  0.36877100  0.09466700  0.33989300  1
  P  P3  1  0.61300000  0.59422300  0.83929600  1
  P  P4  1  0.32312300  0.22330100  0.90087800  1
  P  P5  1  0.67687700  0.77669900  0.09912200  1
  P  P6  1  0.93865300  0.23353800  0.40353900  1
  P  P7  1  0.11300000  0.90577700  0.16070400  1
  P  P8  1  0.38700000  0.40577700  0.16070400  1
  P  P9  1  0.17687700  0.72330100  0.90087800  1
  P  P10  1  0.06134700  0.76646200  0.59646100  1
  P  P11  1  0.63122900  0.90533300  0.66010700  1
  P  P12  1  0.82312300  0.27669900  0.09912200  1
  P  P13  1  0.56134700  0.73353800  0.40353900  1
  P  P14  1  0.88700000  0.09422300  0.83929600  1
  P  P15  1  0.86877100  0.40533300  0.66010700  1
  C  C16  1  0.39342200  0.66059500  0.87255200  1
  C  C17  1  0.05006500  0.91982600  0.60346900  1
  C  C18  1  0.29957800  0.07194800  0.89043900  1
  C  C19  1  0.10657800  0.16059500  0.87255200  1
  C  C20  1  0.55006500  0.58017400  0.39653100  1
  C  C21  1  0.89342200  0.83940500  0.12744800  1
  C  C22  1  0.79957800  0.42805200  0.10956100  1
  C  C23  1  0.35227900  0.66380600  0.37360100  1
  C  C24  1  0.60657800  0.33940500  0.12744800  1
  C  C25  1  0.14772100  0.16380600  0.37360100  1
  C  C26  1  0.64772100  0.33619400  0.62639900  1
  C  C27  1  0.85227900  0.83619400  0.62639900  1
  C  C28  1  0.70042200  0.92805200  0.10956100  1
  C  C29  1  0.44993500  0.41982600  0.60346900  1
  C  C30  1  0.20042200  0.57194800  0.89043900  1
  C  C31  1  0.94993500  0.08017400  0.39653100  1
  N  N32  1  0.90298300  0.76262900  0.61451500  1
  N  N33  1  0.83665800  0.76856700  0.11396500  1
  N  N34  1  0.21790000  0.66812400  0.35670400  1
  N  N35  1  0.92090000  0.91342300  0.62225800  1
  N  N36  1  0.28210000  0.16812400  0.35670400  1
  N  N37  1  0.78210000  0.33187600  0.64329600  1
  N  N38  1  0.63418200  0.63849300  0.41009600  1
  N  N39  1  0.11206500  0.62649300  0.90590400  1
  N  N40  1  0.07910000  0.08657700  0.37774200  1
  N  N41  1  0.36581800  0.36150700  0.58990400  1
  N  N42  1  0.61206500  0.87350700  0.09409600  1
  N  N43  1  0.59701700  0.26262900  0.61451500  1
  N  N44  1  0.33061900  0.58319900  0.87268400  1
  N  N45  1  0.38793500  0.12649300  0.90590400  1
  N  N46  1  0.16334200  0.23143300  0.88603500  1
  N  N47  1  0.97096500  0.16743100  0.85888600  1
  N  N48  1  0.13418200  0.86150700  0.58990400  1
  N  N49  1  0.16938100  0.08319900  0.87268400  1
  N  N50  1  0.88793500  0.37350700  0.09409600  1
  N  N51  1  0.02903500  0.83256900  0.14111400  1
  N  N52  1  0.40298300  0.73737100  0.38548500  1
  N  N53  1  0.57910000  0.41342300  0.62225800  1
  N  N54  1  0.86581800  0.13849300  0.41009600  1
  N  N55  1  0.83061900  0.91680100  0.12731600  1
  N  N56  1  0.71790000  0.83187600  0.64329600  1
  N  N57  1  0.09701700  0.23737100  0.38548500  1
  N  N58  1  0.52903500  0.66743100  0.85888600  1
  N  N59  1  0.42090000  0.58657700  0.37774200  1
  N  N60  1  0.47096500  0.33256900  0.14111400  1
  N  N61  1  0.66334200  0.26856700  0.11396500  1
  N  N62  1  0.66938100  0.41680100  0.12731600  1
  N  N63  1  0.33665800  0.73143300  0.88603500  1
  Cl  Cl64  1  0.07934000  0.91187600  0.26610400  1
  Cl  Cl65  1  0.93894800  0.62904800  0.34111800  1
  Cl  Cl66  1  0.80563900  0.62798700  0.83824700  1
  Cl  Cl67  1  0.36363500  0.96295500  0.41598500  1
  Cl  Cl68  1  0.65413300  0.91024000  0.76693300  1
  Cl  Cl69  1  0.11204000  0.03866700  0.08480000  1
  Cl  Cl70  1  0.92066000  0.08812400  0.73389600  1
  Cl  Cl71  1  0.88796000  0.96133300  0.91520000  1
  Cl  Cl72  1  0.39823400  0.24295600  0.49901700  1
  Cl  Cl73  1  0.08004000  0.82832600  0.81713700  1
  Cl  Cl74  1  0.56105200  0.12904800  0.34111800  1
  Cl  Cl75  1  0.36307600  0.96701300  0.89377000  1
  Cl  Cl76  1  0.15413300  0.58976000  0.23306700  1
  Cl  Cl77  1  0.15681300  0.65846100  0.67796500  1
  Cl  Cl78  1  0.86307600  0.53298700  0.10623000  1
  Cl  Cl79  1  0.13692400  0.46701300  0.89377000  1
  Cl  Cl80  1  0.63692400  0.03298700  0.10623000  1
  Cl  Cl81  1  0.06105200  0.37095200  0.65888200  1
  Cl  Cl82  1  0.87284400  0.25412200  0.00261500  1
  Cl  Cl83  1  0.12715600  0.74587800  0.99738500  1
  Cl  Cl84  1  0.42066000  0.41187600  0.26610400  1
  Cl  Cl85  1  0.87709900  0.97536600  0.40457300  1
  Cl  Cl86  1  0.10176600  0.74295600  0.49901700  1
  Cl  Cl87  1  0.84318700  0.34153900  0.32203500  1
  Cl  Cl88  1  0.30563900  0.87201300  0.16175300  1
  Cl  Cl89  1  0.62290100  0.47536600  0.40457300  1
  Cl  Cl90  1  0.57934000  0.58812400  0.73389600  1
  Cl  Cl91  1  0.62715600  0.75412200  0.00261500  1
  Cl  Cl92  1  0.37709900  0.52463400  0.59542700  1
  Cl  Cl93  1  0.91996000  0.17167400  0.18286300  1
  Cl  Cl94  1  0.69436100  0.12798700  0.83824700  1
  Cl  Cl95  1  0.84586700  0.41024000  0.76693300  1
  Cl  Cl96  1  0.63636500  0.03704500  0.58401500  1
  Cl  Cl97  1  0.58004000  0.67167400  0.18286300  1
  Cl  Cl98  1  0.86363500  0.53704500  0.58401500  1
  Cl  Cl99  1  0.12290100  0.02463400  0.59542700  1
  Cl  Cl100  1  0.89823400  0.25704400  0.50098300  1
  Cl  Cl101  1  0.37284400  0.24587800  0.99738500  1
  Cl  Cl102  1  0.19436100  0.37201300  0.16175300  1
  Cl  Cl103  1  0.34318700  0.15846100  0.67796500  1
  Cl  Cl104  1  0.61204000  0.46133300  0.91520000  1
  Cl  Cl105  1  0.65681300  0.84153900  0.32203500  1
  Cl  Cl106  1  0.41996000  0.32832600  0.81713700  1
  Cl  Cl107  1  0.13636500  0.46295500  0.41598500  1
  Cl  Cl108  1  0.34586700  0.08976000  0.23306700  1
  Cl  Cl109  1  0.60176600  0.75704400  0.50098300  1
  Cl  Cl110  1  0.38796000  0.53866700  0.08480000  1
  Cl  Cl111  1  0.43894800  0.87095200  0.65888200  1
