# generated using pymatgen
data_CdI2
_symmetry_space_group_name_H-M   'P 1'
_cell_length_a   4.35149010
_cell_length_b   4.35149010
_cell_length_c   29.30578000
_cell_angle_alpha   90.00000000
_cell_angle_beta   90.00000000
_cell_angle_gamma   120.00000152
_symmetry_Int_Tables_number   1
_chemical_formula_structural   CdI2
_chemical_formula_sum   'Cd4 I8'
_cell_volume   480.57360028
_cell_formula_units_Z   4
loop_
 _symmetry_equiv_pos_site_id
 _symmetry_equiv_pos_as_xyz
  1  'x, y, z'
loop_
 _atom_site_type_symbol
 _atom_site_label
 _atom_site_symmetry_multiplicity
 _atom_site_fract_x
 _atom_site_fract_y
 _atom_site_fract_z
 _atom_site_occupancy
  Cd  Cd0  1  0.00000000  0.00000000  0.56252800  1
  Cd  Cd1  1  0.66666700  0.33333300  0.31245100  1
  Cd  Cd2  1  0.66666700  0.33333300  0.81245900  1
  Cd  Cd3  1  0.66666700  0.33333300  0.06254800  1
  I  I4  1  0.33333300  0.66666700  0.37122900  1
  I  I5  1  0.33333300  0.66666700  0.12132100  1
  I  I6  1  0.33333300  0.66666700  0.87123400  1
  I  I7  1  0.00000000  0.00000000  0.00378100  1
  I  I8  1  0.66666700  0.33333300  0.50374100  1
  I  I9  1  0.00000000  0.00000000  0.75370200  1
  I  I10  1  0.33333300  0.66666700  0.62130900  1
  I  I11  1  0.00000000  0.00000000  0.25369600  1
