# generated using pymatgen
data_CdI2
_symmetry_space_group_name_H-M   'P 1'
_cell_length_a   4.34470037
_cell_length_b   4.34470037
_cell_length_c   80.91313400
_cell_angle_alpha   90.00000000
_cell_angle_beta   90.00000000
_cell_angle_gamma   120.00000565
_symmetry_Int_Tables_number   1
_chemical_formula_structural   CdI2
_chemical_formula_sum   'Cd11 I22'
_cell_volume   1322.72417774
_cell_formula_units_Z   11
loop_
 _symmetry_equiv_pos_site_id
 _symmetry_equiv_pos_as_xyz
  1  'x, y, z'
loop_
 _atom_site_type_symbol
 _atom_site_label
 _atom_site_symmetry_multiplicity
 _atom_site_fract_x
 _atom_site_fract_y
 _atom_site_fract_z
 _atom_site_occupancy
  Cd  Cd0  1  0.00000000  0.00000000  0.20453400  1
  Cd  Cd1  1  0.33333300  0.66666700  0.84091800  1
  Cd  Cd2  1  0.00000000  0.00000000  0.02272900  1
  Cd  Cd3  1  0.33333300  0.66666700  0.93181100  1
  Cd  Cd4  1  0.33333300  0.66666700  0.29544300  1
  Cd  Cd5  1  0.00000000  0.00000000  0.38639000  1
  Cd  Cd6  1  0.33333300  0.66666700  0.56818500  1
  Cd  Cd7  1  0.33333300  0.66666700  0.11363200  1
  Cd  Cd8  1  0.00000000  0.00000000  0.47727500  1
  Cd  Cd9  1  0.33333300  0.66666700  0.65906900  1
  Cd  Cd10  1  0.33333300  0.66666700  0.74999400  1
  I  I11  1  0.66666700  0.33333300  0.58955300  1
  I  I12  1  0.33333300  0.66666700  0.45588200  1
  I  I13  1  0.66666700  0.33333300  0.40777800  1
  I  I14  1  0.33333300  0.66666700  0.18315400  1
  I  I15  1  0.66666700  0.33333300  0.86230800  1
  I  I16  1  0.66666700  0.33333300  0.95318100  1
  I  I17  1  0.00000000  0.00000000  0.27406900  1
  I  I18  1  0.66666700  0.33333300  0.77137200  1
  I  I19  1  0.66666700  0.33333300  0.04411900  1
  I  I20  1  0.66666700  0.33333300  0.22591900  1
  I  I21  1  0.00000000  0.00000000  0.09224600  1
  I  I22  1  0.33333300  0.66666700  0.00137600  1
  I  I23  1  0.66666700  0.33333300  0.31685400  1
  I  I24  1  0.00000000  0.00000000  0.54680300  1
  I  I25  1  0.00000000  0.00000000  0.72861800  1
  I  I26  1  0.33333300  0.66666700  0.36500100  1
  I  I27  1  0.66666700  0.33333300  0.68045700  1
  I  I28  1  0.00000000  0.00000000  0.91044300  1
  I  I29  1  0.00000000  0.00000000  0.81953300  1
  I  I30  1  0.66666700  0.33333300  0.13502000  1
  I  I31  1  0.00000000  0.00000000  0.63768300  1
  I  I32  1  0.66666700  0.33333300  0.49865300  1
