# generated using pymatgen
data_CdI2
_symmetry_space_group_name_H-M   'P 1'
_cell_length_a   4.34250419
_cell_length_b   4.34250419
_cell_length_c   146.80123300
_cell_angle_alpha   90.00000000
_cell_angle_beta   90.00000000
_cell_angle_gamma   120.00000290
_symmetry_Int_Tables_number   1
_chemical_formula_structural   CdI2
_chemical_formula_sum   'Cd20 I40'
_cell_volume   2397.40173174
_cell_formula_units_Z   20
loop_
 _symmetry_equiv_pos_site_id
 _symmetry_equiv_pos_as_xyz
  1  'x, y, z'
loop_
 _atom_site_type_symbol
 _atom_site_label
 _atom_site_symmetry_multiplicity
 _atom_site_fract_x
 _atom_site_fract_y
 _atom_site_fract_z
 _atom_site_occupancy
  Cd  Cd0  1  0.00000000  0.00000000  0.01250000  1
  Cd  Cd1  1  0.66666700  0.33333300  0.81249200  1
  Cd  Cd2  1  0.66666700  0.33333300  0.11249900  1
  Cd  Cd3  1  0.66666700  0.33333300  0.41250700  1
  Cd  Cd4  1  0.66666700  0.33333300  0.61249900  1
  Cd  Cd5  1  0.66666700  0.33333300  0.96249900  1
  Cd  Cd6  1  0.33333300  0.66666700  0.66249200  1
  Cd  Cd7  1  0.66666700  0.33333300  0.06249700  1
  Cd  Cd8  1  0.66666700  0.33333300  0.16250900  1
  Cd  Cd9  1  0.66666700  0.33333300  0.51249700  1
  Cd  Cd10  1  0.33333300  0.66666700  0.46249800  1
  Cd  Cd11  1  0.33333300  0.66666700  0.36250300  1
  Cd  Cd12  1  0.33333300  0.66666700  0.26248900  1
  Cd  Cd13  1  0.33333300  0.66666700  0.76248900  1
  Cd  Cd14  1  0.33333300  0.66666700  0.86250200  1
  Cd  Cd15  1  0.66666700  0.33333300  0.31249300  1
  Cd  Cd16  1  0.66666700  0.33333300  0.71249800  1
  Cd  Cd17  1  0.66666700  0.33333300  0.21249700  1
  Cd  Cd18  1  0.66666700  0.33333300  0.91250800  1
  Cd  Cd19  1  0.33333300  0.66666700  0.56249700  1
  I  I20  1  0.33333300  0.66666700  0.05071600  1
  I  I21  1  0.66666700  0.33333300  0.75070200  1
  I  I22  1  0.00000000  0.00000000  0.52428700  1
  I  I23  1  0.33333300  0.66666700  0.95072100  1
  I  I24  1  0.00000000  0.00000000  0.22428300  1
  I  I25  1  0.66666700  0.33333300  0.45070900  1
  I  I26  1  0.33333300  0.66666700  0.80071400  1
  I  I27  1  0.33333300  0.66666700  0.15072700  1
  I  I28  1  0.00000000  0.00000000  0.82427400  1
  I  I29  1  0.00000000  0.00000000  0.67428400  1
  I  I30  1  0.00000000  0.00000000  0.32427500  1
  I  I31  1  0.66666700  0.33333300  0.35071400  1
  I  I32  1  0.33333300  0.66666700  0.30071400  1
  I  I33  1  0.00000000  0.00000000  0.97428500  1
  I  I34  1  0.00000000  0.00000000  0.47428400  1
  I  I35  1  0.33333300  0.66666700  0.10072400  1
  I  I36  1  0.00000000  0.00000000  0.77427400  1
  I  I37  1  0.00000000  0.00000000  0.72428300  1
  I  I38  1  0.33333300  0.66666700  0.40072600  1
  I  I39  1  0.00000000  0.00000000  0.87429100  1
  I  I40  1  0.00000000  0.00000000  0.37429100  1
  I  I41  1  0.00000000  0.00000000  0.17429200  1
  I  I42  1  0.00000000  0.00000000  0.27427800  1
  I  I43  1  0.33333300  0.66666700  0.90072700  1
  I  I44  1  0.66666700  0.33333300  0.02429000  1
  I  I45  1  0.00000000  0.00000000  0.42429100  1
  I  I46  1  0.33333300  0.66666700  0.00072400  1
  I  I47  1  0.00000000  0.00000000  0.62428600  1
  I  I48  1  0.33333300  0.66666700  0.20072200  1
  I  I49  1  0.66666700  0.33333300  0.55071100  1
  I  I50  1  0.33333300  0.66666700  0.60072300  1
  I  I51  1  0.00000000  0.00000000  0.07427800  1
  I  I52  1  0.66666700  0.33333300  0.85071400  1
  I  I53  1  0.00000000  0.00000000  0.57428200  1
  I  I54  1  0.33333300  0.66666700  0.50072200  1
  I  I55  1  0.33333300  0.66666700  0.70072100  1
  I  I56  1  0.00000000  0.00000000  0.12428800  1
  I  I57  1  0.66666700  0.33333300  0.65070900  1
  I  I58  1  0.00000000  0.00000000  0.92429200  1
  I  I59  1  0.66666700  0.33333300  0.25070300  1
