# generated using pymatgen
data_CdI2
_symmetry_space_group_name_H-M   'P 1'
_cell_length_a   4.34228824
_cell_length_b   4.34228824
_cell_length_c   139.64795900
_cell_angle_alpha   90.00000000
_cell_angle_beta   90.00000000
_cell_angle_gamma   120.00000371
_symmetry_Int_Tables_number   1
_chemical_formula_structural   CdI2
_chemical_formula_sum   'Cd19 I38'
_cell_volume   2280.35522914
_cell_formula_units_Z   19
loop_
 _symmetry_equiv_pos_site_id
 _symmetry_equiv_pos_as_xyz
  1  'x, y, z'
loop_
 _atom_site_type_symbol
 _atom_site_label
 _atom_site_symmetry_multiplicity
 _atom_site_fract_x
 _atom_site_fract_y
 _atom_site_fract_z
 _atom_site_occupancy
  Cd  Cd0  1  0.00000000  0.00000000  0.53948800  1
  Cd  Cd1  1  0.66666700  0.33333300  0.74999800  1
  Cd  Cd2  1  0.00000000  0.00000000  0.43420200  1
  Cd  Cd3  1  0.00000000  0.00000000  0.69736400  1
  Cd  Cd4  1  0.66666700  0.33333300  0.06576700  1
  Cd  Cd5  1  0.66666700  0.33333300  0.48683800  1
  Cd  Cd6  1  0.00000000  0.00000000  0.01316900  1
  Cd  Cd7  1  0.00000000  0.00000000  0.11841800  1
  Cd  Cd8  1  0.00000000  0.00000000  0.59209600  1
  Cd  Cd9  1  0.66666700  0.33333300  0.64474100  1
  Cd  Cd10  1  0.00000000  0.00000000  0.27632200  1
  Cd  Cd11  1  0.66666700  0.33333300  0.38155600  1
  Cd  Cd12  1  0.00000000  0.00000000  0.85527000  1
  Cd  Cd13  1  0.66666700  0.33333300  0.17105100  1
  Cd  Cd14  1  0.66666700  0.33333300  0.90790300  1
  Cd  Cd15  1  0.66666700  0.33333300  0.32895500  1
  Cd  Cd16  1  0.00000000  0.00000000  0.22370400  1
  Cd  Cd17  1  0.66666700  0.33333300  0.96052600  1
  Cd  Cd18  1  0.66666700  0.33333300  0.80261500  1
  I  I19  1  0.66666700  0.33333300  0.70975600  1
  I  I20  1  0.33333300  0.66666700  0.73761400  1
  I  I21  1  0.33333300  0.66666700  0.84287900  1
  I  I22  1  0.33333300  0.66666700  0.47444900  1
  I  I23  1  0.66666700  0.33333300  0.02554600  1
  I  I24  1  0.33333300  0.66666700  0.94815100  1
  I  I25  1  0.66666700  0.33333300  0.44658500  1
  I  I26  1  0.33333300  0.66666700  0.26392300  1
  I  I27  1  0.33333300  0.66666700  0.79024000  1
  I  I28  1  0.33333300  0.66666700  0.05338000  1
  I  I29  1  0.66666700  0.33333300  0.86765800  1
  I  I30  1  0.00000000  0.00000000  0.92028600  1
  I  I31  1  0.66666700  0.33333300  0.13080500  1
  I  I32  1  0.33333300  0.66666700  0.42183000  1
  I  I33  1  0.00000000  0.00000000  0.97292000  1
  I  I34  1  0.33333300  0.66666700  0.21132600  1
  I  I35  1  0.00000000  0.00000000  0.65712700  1
  I  I36  1  0.33333300  0.66666700  0.68498000  1
  I  I37  1  0.00000000  0.00000000  0.07815200  1
  I  I38  1  0.66666700  0.33333300  0.23608800  1
  I  I39  1  0.33333300  0.66666700  0.89551100  1
  I  I40  1  0.66666700  0.33333300  0.55186600  1
  I  I41  1  0.00000000  0.00000000  0.39394600  1
  I  I42  1  0.00000000  0.00000000  0.81500100  1
  I  I43  1  0.33333300  0.66666700  0.00078700  1
  I  I44  1  0.33333300  0.66666700  0.36918100  1
  I  I45  1  0.33333300  0.66666700  0.52709800  1
  I  I46  1  0.00000000  0.00000000  0.34133400  1
  I  I47  1  0.66666700  0.33333300  0.60448600  1
  I  I48  1  0.00000000  0.00000000  0.18343700  1
  I  I49  1  0.00000000  0.00000000  0.76238000  1
  I  I50  1  0.33333300  0.66666700  0.57971800  1
  I  I51  1  0.33333300  0.66666700  0.63236200  1
  I  I52  1  0.00000000  0.00000000  0.49923400  1
  I  I53  1  0.33333300  0.66666700  0.15867600  1
  I  I54  1  0.66666700  0.33333300  0.28871600  1
  I  I55  1  0.33333300  0.66666700  0.10602500  1
  I  I56  1  0.33333300  0.66666700  0.31656200  1
