# generated using pymatgen
data_CdI2
_symmetry_space_group_name_H-M   'P 1'
_cell_length_a   4.33911267
_cell_length_b   4.33911267
_cell_length_c   154.43503200
_cell_angle_alpha   90.00000000
_cell_angle_beta   90.00000000
_cell_angle_gamma   120.00001027
_symmetry_Int_Tables_number   1
_chemical_formula_structural   CdI2
_chemical_formula_sum   'Cd21 I42'
_cell_volume   2518.13068017
_cell_formula_units_Z   21
loop_
 _symmetry_equiv_pos_site_id
 _symmetry_equiv_pos_as_xyz
  1  'x, y, z'
loop_
 _atom_site_type_symbol
 _atom_site_label
 _atom_site_symmetry_multiplicity
 _atom_site_fract_x
 _atom_site_fract_y
 _atom_site_fract_z
 _atom_site_occupancy
  Cd  Cd0  1  0.33333300  0.66666700  0.53571500  1
  Cd  Cd1  1  0.66666700  0.33333300  0.58333200  1
  Cd  Cd2  1  0.66666700  0.33333300  0.01190000  1
  Cd  Cd3  1  0.33333300  0.66666700  0.10714200  1
  Cd  Cd4  1  0.66666700  0.33333300  0.86904600  1
  Cd  Cd5  1  0.66666700  0.33333300  0.72619000  1
  Cd  Cd6  1  0.33333300  0.66666700  0.48809600  1
  Cd  Cd7  1  0.66666700  0.33333300  0.82142900  1
  Cd  Cd8  1  0.33333300  0.66666700  0.34523900  1
  Cd  Cd9  1  0.66666700  0.33333300  0.15476900  1
  Cd  Cd10  1  0.33333300  0.66666700  0.77380600  1
  Cd  Cd11  1  0.33333300  0.66666700  0.63096300  1
  Cd  Cd12  1  0.33333300  0.66666700  0.20238400  1
  Cd  Cd13  1  0.33333300  0.66666700  0.67856800  1
  Cd  Cd14  1  0.33333300  0.66666700  0.91666500  1
  Cd  Cd15  1  0.66666700  0.33333300  0.29761800  1
  Cd  Cd16  1  0.33333300  0.66666700  0.05952300  1
  Cd  Cd17  1  0.33333300  0.66666700  0.39285500  1
  Cd  Cd18  1  0.66666700  0.33333300  0.44047700  1
  Cd  Cd19  1  0.33333300  0.66666700  0.24999600  1
  Cd  Cd20  1  0.33333300  0.66666700  0.96428800  1
  I  I21  1  0.66666700  0.33333300  0.07071700  1
  I  I22  1  0.00000000  0.00000000  0.09595200  1
  I  I23  1  0.00000000  0.00000000  0.23880300  1
  I  I24  1  0.00000000  0.00000000  0.19118600  1
  I  I25  1  0.66666700  0.33333300  0.68975600  1
  I  I26  1  0.00000000  0.00000000  0.52451700  1
  I  I27  1  0.33333300  0.66666700  0.45166300  1
  I  I28  1  0.00000000  0.00000000  0.81023700  1
  I  I29  1  0.33333300  0.66666700  0.59451300  1
  I  I30  1  0.66666700  0.33333300  0.78499100  1
  I  I31  1  0.00000000  0.00000000  0.71501400  1
  I  I32  1  0.00000000  0.00000000  0.76261500  1
  I  I33  1  0.00000000  0.00000000  0.28642400  1
  I  I34  1  0.66666700  0.33333300  0.64214200  1
  I  I35  1  0.33333300  0.66666700  0.83262100  1
  I  I36  1  0.00000000  0.00000000  0.66739600  1
  I  I37  1  0.33333300  0.66666700  0.30879900  1
  I  I38  1  0.00000000  0.00000000  0.47690500  1
  I  I39  1  0.00000000  0.00000000  0.04834700  1
  I  I40  1  0.00000000  0.00000000  0.14357700  1
  I  I41  1  0.66666700  0.33333300  0.11832600  1
  I  I42  1  0.00000000  0.00000000  0.85784800  1
  I  I43  1  0.00000000  0.00000000  0.61977200  1
  I  I44  1  0.66666700  0.33333300  0.97546800  1
  I  I45  1  0.00000000  0.00000000  0.00072500  1
  I  I46  1  0.00000000  0.00000000  0.90547100  1
  I  I47  1  0.33333300  0.66666700  0.16597000  1
  I  I48  1  0.66666700  0.33333300  0.92784600  1
  I  I49  1  0.00000000  0.00000000  0.38168000  1
  I  I50  1  0.66666700  0.33333300  0.21357200  1
  I  I51  1  0.33333300  0.66666700  0.02308800  1
  I  I52  1  0.00000000  0.00000000  0.33406400  1
  I  I53  1  0.33333300  0.66666700  0.73738400  1
  I  I54  1  0.66666700  0.33333300  0.26117900  1
  I  I55  1  0.66666700  0.33333300  0.35643000  1
  I  I56  1  0.66666700  0.33333300  0.40405000  1
  I  I57  1  0.66666700  0.33333300  0.49928800  1
  I  I58  1  0.00000000  0.00000000  0.57213600  1
  I  I59  1  0.33333300  0.66666700  0.88023300  1
  I  I60  1  0.00000000  0.00000000  0.42929000  1
  I  I61  1  0.00000000  0.00000000  0.95309900  1
  I  I62  1  0.66666700  0.33333300  0.54690200  1
