# generated using pymatgen
data_CdI2
_symmetry_space_group_name_H-M   'P 1'
_cell_length_a   4.34203695
_cell_length_b   4.34203695
_cell_length_c   139.58235400
_cell_angle_alpha   90.00000000
_cell_angle_beta   90.00000000
_cell_angle_gamma   119.99998400
_symmetry_Int_Tables_number   1
_chemical_formula_structural   CdI2
_chemical_formula_sum   'Cd19 I38'
_cell_volume   2279.02059491
_cell_formula_units_Z   19
loop_
 _symmetry_equiv_pos_site_id
 _symmetry_equiv_pos_as_xyz
  1  'x, y, z'
loop_
 _atom_site_type_symbol
 _atom_site_label
 _atom_site_symmetry_multiplicity
 _atom_site_fract_x
 _atom_site_fract_y
 _atom_site_fract_z
 _atom_site_occupancy
  Cd  Cd0  1  0.00000000  0.00000000  0.53948700  1
  Cd  Cd1  1  0.66666700  0.33333300  0.96052400  1
  Cd  Cd2  1  0.00000000  0.00000000  0.32895600  1
  Cd  Cd3  1  0.66666700  0.33333300  0.59209500  1
  Cd  Cd4  1  0.00000000  0.00000000  0.43420200  1
  Cd  Cd5  1  0.66666700  0.33333300  0.06576900  1
  Cd  Cd6  1  0.66666700  0.33333300  0.48683600  1
  Cd  Cd7  1  0.00000000  0.00000000  0.64473900  1
  Cd  Cd8  1  0.00000000  0.00000000  0.01316800  1
  Cd  Cd9  1  0.66666700  0.33333300  0.69736300  1
  Cd  Cd10  1  0.00000000  0.00000000  0.11842100  1
  Cd  Cd11  1  0.66666700  0.33333300  0.27632800  1
  Cd  Cd12  1  0.00000000  0.00000000  0.74999800  1
  Cd  Cd13  1  0.66666700  0.33333300  0.17105600  1
  Cd  Cd14  1  0.66666700  0.33333300  0.90790400  1
  Cd  Cd15  1  0.66666700  0.33333300  0.38155900  1
  Cd  Cd16  1  0.00000000  0.00000000  0.22370500  1
  Cd  Cd17  1  0.66666700  0.33333300  0.80261800  1
  Cd  Cd18  1  0.00000000  0.00000000  0.85526900  1
  I  I19  1  0.33333300  0.66666700  0.84287600  1
  I  I20  1  0.33333300  0.66666700  0.73760000  1
  I  I21  1  0.33333300  0.66666700  0.47444400  1
  I  I22  1  0.00000000  0.00000000  0.28872200  1
  I  I23  1  0.66666700  0.33333300  0.02554800  1
  I  I24  1  0.66666700  0.33333300  0.44659100  1
  I  I25  1  0.33333300  0.66666700  0.26391900  1
  I  I26  1  0.66666700  0.33333300  0.65712900  1
  I  I27  1  0.33333300  0.66666700  0.05337200  1
  I  I28  1  0.66666700  0.33333300  0.86766100  1
  I  I29  1  0.00000000  0.00000000  0.92029300  1
  I  I30  1  0.66666700  0.33333300  0.13081200  1
  I  I31  1  0.33333300  0.66666700  0.42182000  1
  I  I32  1  0.00000000  0.00000000  0.97292300  1
  I  I33  1  0.33333300  0.66666700  0.21132300  1
  I  I34  1  0.00000000  0.00000000  0.81500700  1
  I  I35  1  0.33333300  0.66666700  0.68497300  1
  I  I36  1  0.00000000  0.00000000  0.07815600  1
  I  I37  1  0.66666700  0.33333300  0.23609900  1
  I  I38  1  0.33333300  0.66666700  0.89550400  1
  I  I39  1  0.66666700  0.33333300  0.55186900  1
  I  I40  1  0.00000000  0.00000000  0.39395300  1
  I  I41  1  0.66666700  0.33333300  0.76238600  1
  I  I42  1  0.66666700  0.33333300  0.34133900  1
  I  I43  1  0.33333300  0.66666700  0.00078100  1
  I  I44  1  0.00000000  0.00000000  0.60448800  1
  I  I45  1  0.33333300  0.66666700  0.36917900  1
  I  I46  1  0.00000000  0.00000000  0.70975800  1
  I  I47  1  0.33333300  0.66666700  0.52708800  1
  I  I48  1  0.33333300  0.66666700  0.94814200  1
  I  I49  1  0.00000000  0.00000000  0.18344700  1
  I  I50  1  0.33333300  0.66666700  0.79023800  1
  I  I51  1  0.33333300  0.66666700  0.57971600  1
  I  I52  1  0.33333300  0.66666700  0.63235200  1
  I  I53  1  0.00000000  0.00000000  0.49923700  1
  I  I54  1  0.33333300  0.66666700  0.15867500  1
  I  I55  1  0.33333300  0.66666700  0.10602300  1
  I  I56  1  0.33333300  0.66666700  0.31655800  1
