# generated using pymatgen
data_CdI2
_symmetry_space_group_name_H-M   'P 1'
_cell_length_a   4.33918797
_cell_length_b   4.33918797
_cell_length_c   161.68819900
_cell_angle_alpha   90.00000000
_cell_angle_beta   90.00000000
_cell_angle_gamma   119.99999947
_symmetry_Int_Tables_number   1
_chemical_formula_structural   CdI2
_chemical_formula_sum   'Cd22 I44'
_cell_volume   2636.48851799
_cell_formula_units_Z   22
loop_
 _symmetry_equiv_pos_site_id
 _symmetry_equiv_pos_as_xyz
  1  'x, y, z'
loop_
 _atom_site_type_symbol
 _atom_site_label
 _atom_site_symmetry_multiplicity
 _atom_site_fract_x
 _atom_site_fract_y
 _atom_site_fract_z
 _atom_site_occupancy
  Cd  Cd0  1  0.00000000  0.00000000  0.23864100  1
  Cd  Cd1  1  0.66666700  0.33333300  0.92044500  1
  Cd  Cd2  1  0.66666700  0.33333300  0.87500000  1
  Cd  Cd3  1  0.66666700  0.33333300  0.69320100  1
  Cd  Cd4  1  0.33333300  0.66666700  0.19318400  1
  Cd  Cd5  1  0.00000000  0.00000000  0.01136600  1
  Cd  Cd6  1  0.66666700  0.33333300  0.73864000  1
  Cd  Cd7  1  0.00000000  0.00000000  0.82953400  1
  Cd  Cd8  1  0.66666700  0.33333300  0.32953600  1
  Cd  Cd9  1  0.33333300  0.66666700  0.05681500  1
  Cd  Cd10  1  0.00000000  0.00000000  0.37499900  1
  Cd  Cd11  1  0.33333300  0.66666700  0.14772800  1
  Cd  Cd12  1  0.66666700  0.33333300  0.51136600  1
  Cd  Cd13  1  0.00000000  0.00000000  0.28408400  1
  Cd  Cd14  1  0.00000000  0.00000000  0.96590700  1
  Cd  Cd15  1  0.00000000  0.00000000  0.10226800  1
  Cd  Cd16  1  0.66666700  0.33333300  0.55682900  1
  Cd  Cd17  1  0.00000000  0.00000000  0.42044600  1
  Cd  Cd18  1  0.00000000  0.00000000  0.60227200  1
  Cd  Cd19  1  0.66666700  0.33333300  0.46590800  1
  Cd  Cd20  1  0.00000000  0.00000000  0.78408600  1
  Cd  Cd21  1  0.00000000  0.00000000  0.64773200  1
  I  I22  1  0.66666700  0.33333300  0.84022800  1
  I  I23  1  0.33333300  0.66666700  0.22794400  1
  I  I24  1  0.33333300  0.66666700  0.54613000  1
  I  I25  1  0.00000000  0.00000000  0.34022800  1
  I  I26  1  0.33333300  0.66666700  0.45520000  1
  I  I27  1  0.33333300  0.66666700  0.36430000  1
  I  I28  1  0.33333300  0.66666700  0.63704600  1
  I  I29  1  0.00000000  0.00000000  0.52205700  1
  I  I30  1  0.33333300  0.66666700  0.31885000  1
  I  I31  1  0.66666700  0.33333300  0.43114200  1
  I  I32  1  0.00000000  0.00000000  0.70389300  1
  I  I33  1  0.33333300  0.66666700  0.72794300  1
  I  I34  1  0.33333300  0.66666700  0.95519900  1
  I  I35  1  0.33333300  0.66666700  0.59158200  1
  I  I36  1  0.66666700  0.33333300  0.02205600  1
  I  I37  1  0.66666700  0.33333300  0.61296000  1
  I  I38  1  0.33333300  0.66666700  0.40976200  1
  I  I39  1  0.00000000  0.00000000  0.93114200  1
  I  I40  1  0.66666700  0.33333300  0.29476700  1
  I  I41  1  0.33333300  0.66666700  0.27339800  1
  I  I42  1  0.00000000  0.00000000  0.74933000  1
  I  I43  1  0.00000000  0.00000000  0.04612200  1
  I  I44  1  0.33333300  0.66666700  0.81884800  1
  I  I45  1  0.33333300  0.66666700  0.68251100  1
  I  I46  1  0.66666700  0.33333300  0.38568600  1
  I  I47  1  0.00000000  0.00000000  0.88568700  1
  I  I48  1  0.00000000  0.00000000  0.18249400  1
  I  I49  1  0.66666700  0.33333300  0.97659100  1
  I  I50  1  0.00000000  0.00000000  0.47659600  1
  I  I51  1  0.33333300  0.66666700  0.90976100  1
  I  I52  1  0.33333300  0.66666700  0.00069400  1
  I  I53  1  0.33333300  0.66666700  0.77340100  1
  I  I54  1  0.66666700  0.33333300  0.79476700  1
  I  I55  1  0.66666700  0.33333300  0.15842900  1
  I  I56  1  0.33333300  0.66666700  0.86430000  1
  I  I57  1  0.66666700  0.33333300  0.20387700  1
  I  I58  1  0.33333300  0.66666700  0.09157900  1
  I  I59  1  0.00000000  0.00000000  0.13704100  1
  I  I60  1  0.33333300  0.66666700  0.50069500  1
  I  I61  1  0.00000000  0.00000000  0.56752000  1
  I  I62  1  0.66666700  0.33333300  0.06750700  1
  I  I63  1  0.66666700  0.33333300  0.11295900  1
  I  I64  1  0.66666700  0.33333300  0.65843200  1
  I  I65  1  0.66666700  0.33333300  0.24933000  1
