# generated using pymatgen
data_K2AgC3(SN)3
_symmetry_space_group_name_H-M   'P 1'
_cell_length_a   20.27050300
_cell_length_b   9.96864000
_cell_length_c   12.53213281
_cell_angle_alpha   55.55622905
_cell_angle_beta   90.00000000
_cell_angle_gamma   90.00000000
_symmetry_Int_Tables_number   1
_chemical_formula_structural   K2AgC3(SN)3
_chemical_formula_sum   'K16 Ag8 C24 S24 N24'
_cell_volume   2088.39074290
_cell_formula_units_Z   8
loop_
 _symmetry_equiv_pos_site_id
 _symmetry_equiv_pos_as_xyz
  1  'x, y, z'
loop_
 _atom_site_type_symbol
 _atom_site_label
 _atom_site_symmetry_multiplicity
 _atom_site_fract_x
 _atom_site_fract_y
 _atom_site_fract_z
 _atom_site_occupancy
  K  K0  1  0.89264300  0.50835800  0.12300000  1
  K  K1  1  0.09793400  0.03096200  0.60978200  1
  K  K2  1  0.40206600  0.03096200  0.10978200  1
  K  K3  1  0.76449800  0.20540000  0.04273300  1
  K  K4  1  0.10735700  0.49164200  0.87700000  1
  K  K5  1  0.26449800  0.79460000  0.45726700  1
  K  K6  1  0.23550200  0.79460000  0.95726700  1
  K  K7  1  0.71978600  0.70163900  0.28860500  1
  K  K8  1  0.59793400  0.96903800  0.89021800  1
  K  K9  1  0.60735700  0.50835800  0.62300000  1
  K  K10  1  0.90206600  0.96903800  0.39021800  1
  K  K11  1  0.39264300  0.49164200  0.37700000  1
  K  K12  1  0.73550200  0.20540000  0.54273300  1
  K  K13  1  0.21978600  0.29836100  0.21139500  1
  K  K14  1  0.78021400  0.70163900  0.78860500  1
  K  K15  1  0.28021400  0.29836100  0.71139500  1
  Ag  Ag16  1  0.95183400  0.50194900  0.62152300  1
  Ag  Ag17  1  0.42801300  0.98284800  0.59988800  1
  Ag  Ag18  1  0.04816600  0.49805100  0.37847700  1
  Ag  Ag19  1  0.92801300  0.01715200  0.90011200  1
  Ag  Ag20  1  0.45183400  0.49805100  0.87847700  1
  Ag  Ag21  1  0.54816600  0.50194900  0.12152300  1
  Ag  Ag22  1  0.07198700  0.98284800  0.09988800  1
  Ag  Ag23  1  0.57198700  0.01715200  0.40011200  1
  C  C24  1  0.12788100  0.47153100  0.63255100  1
  C  C25  1  0.61258200  0.05144500  0.12311800  1
  C  C26  1  0.88741800  0.05144500  0.62311800  1
  C  C27  1  0.45190200  0.31657100  0.72436500  1
  C  C28  1  0.21802900  0.54139100  0.36102500  1
  C  C29  1  0.22765800  0.07039300  0.08625500  1
  C  C30  1  0.87211900  0.52846900  0.36744900  1
  C  C31  1  0.62788100  0.52846900  0.86744900  1
  C  C32  1  0.78197100  0.45860900  0.63897500  1
  C  C33  1  0.38741800  0.94855500  0.87688200  1
  C  C34  1  0.95190200  0.68342900  0.77563500  1
  C  C35  1  0.72765800  0.92960700  0.41374500  1
  C  C36  1  0.28197100  0.54139100  0.86102500  1
  C  C37  1  0.04809800  0.31657100  0.22436500  1
  C  C38  1  0.77234200  0.92960700  0.91374500  1
  C  C39  1  0.43587900  0.78008900  0.45380700  1
  C  C40  1  0.06412100  0.78008900  0.95380700  1
  C  C41  1  0.54809800  0.68342900  0.27563500  1
  C  C42  1  0.11258200  0.94855500  0.37688200  1
  C  C43  1  0.56412100  0.21991100  0.54619300  1
  C  C44  1  0.37211900  0.47153100  0.13255100  1
  C  C45  1  0.27234200  0.07039300  0.58625500  1
  C  C46  1  0.71802900  0.45860900  0.13897500  1
  C  C47  1  0.93587900  0.21991100  0.04619300  1
  S  S48  1  0.17726100  0.10984700  0.96811900  1
  S  S49  1  0.50217600  0.72813600  0.15031800  1
  S  S50  1  0.83986000  0.41963200  0.74531400  1
  S  S51  1  0.33986000  0.58036800  0.75468600  1
  S  S52  1  0.67726100  0.89015300  0.53188100  1
  S  S53  1  0.00217600  0.27186400  0.34968200  1
  S  S54  1  0.01400300  0.77343700  0.06030500  1
  S  S55  1  0.82273900  0.89015300  0.03188100  1
  S  S56  1  0.44495000  0.86954500  0.83562700  1
  S  S57  1  0.49782400  0.27186400  0.84968200  1
  S  S58  1  0.05505000  0.86954500  0.33562700  1
  S  S59  1  0.99782400  0.72813600  0.65031800  1
  S  S60  1  0.98599700  0.22656300  0.93969500  1
  S  S61  1  0.43044000  0.35550200  0.13172500  1
  S  S62  1  0.06956000  0.35550200  0.63172500  1
  S  S63  1  0.56956000  0.64449800  0.86827500  1
  S  S64  1  0.55505000  0.13045500  0.16437300  1
  S  S65  1  0.66014000  0.41963200  0.24531400  1
  S  S66  1  0.51400300  0.22656300  0.43969500  1
  S  S67  1  0.94495000  0.13045500  0.66437300  1
  S  S68  1  0.16014000  0.58036800  0.25468600  1
  S  S69  1  0.93044000  0.64449800  0.36827500  1
  S  S70  1  0.48599700  0.77343700  0.56030500  1
  S  S71  1  0.32273900  0.10984700  0.46811900  1
  N  N72  1  0.73994500  0.48527000  0.56346400  1
  N  N73  1  0.16958900  0.55089900  0.63781300  1
  N  N74  1  0.83041100  0.44910100  0.36218700  1
  N  N75  1  0.23994500  0.51473000  0.93653600  1
  N  N76  1  0.66958900  0.44910100  0.86218700  1
  N  N77  1  0.41848500  0.34894300  0.63548400  1
  N  N78  1  0.89910300  0.21593800  0.12144200  1
  N  N79  1  0.65356200  0.99828900  0.08895400  1
  N  N80  1  0.73596100  0.95603600  0.82983000  1
  N  N81  1  0.84643800  0.99828900  0.58895400  1
  N  N82  1  0.08151500  0.34894300  0.13548400  1
  N  N83  1  0.26403900  0.04396400  0.17017000  1
  N  N84  1  0.26005500  0.51473000  0.43653600  1
  N  N85  1  0.15356200  0.00171100  0.41104600  1
  N  N86  1  0.76005500  0.48527000  0.06346400  1
  N  N87  1  0.33041100  0.55089900  0.13781300  1
  N  N88  1  0.60089700  0.21593800  0.62144200  1
  N  N89  1  0.76403900  0.95603600  0.32983000  1
  N  N90  1  0.91848500  0.65105700  0.86451600  1
  N  N91  1  0.10089700  0.78406200  0.87855800  1
  N  N92  1  0.58151500  0.65105700  0.36451600  1
  N  N93  1  0.39910300  0.78406200  0.37855800  1
  N  N94  1  0.34643800  0.00171100  0.91104600  1
  N  N95  1  0.23596100  0.04396400  0.67017000  1
