# generated using pymatgen
data_Ba3WN4
_symmetry_space_group_name_H-M   'P 1'
_cell_length_a   18.69893858
_cell_length_b   18.69893858
_cell_length_c   10.57218700
_cell_angle_alpha   90.00000000
_cell_angle_beta   90.00000000
_cell_angle_gamma   120.00000205
_symmetry_Int_Tables_number   1
_chemical_formula_structural   Ba3WN4
_chemical_formula_sum   'Ba54 W18 N72'
_cell_volume   3201.32207360
_cell_formula_units_Z   18
loop_
 _symmetry_equiv_pos_site_id
 _symmetry_equiv_pos_as_xyz
  1  'x, y, z'
loop_
 _atom_site_type_symbol
 _atom_site_label
 _atom_site_symmetry_multiplicity
 _atom_site_fract_x
 _atom_site_fract_y
 _atom_site_fract_z
 _atom_site_occupancy
  Ba  Ba0  1  0.47941500  0.60450300  0.64088600  1
  Ba  Ba1  1  0.81301400  0.24942500  0.64749500  1
  Ba  Ba2  1  0.02092700  0.32978500  0.84405800  1
  Ba  Ba3  1  0.24942500  0.81301400  0.14749500  1
  Ba  Ba4  1  0.67021500  0.69114200  0.84405800  1
  Ba  Ba5  1  0.12508800  0.52058500  0.64088600  1
  Ba  Ba6  1  0.52864600  0.42960000  0.48490300  1
  Ba  Ba7  1  0.47135400  0.90095400  0.98490300  1
  Ba  Ba8  1  0.07533200  0.84759000  0.91254800  1
  Ba  Ba9  1  0.39549700  0.87491200  0.64088600  1
  Ba  Ba10  1  0.08206800  0.22058700  0.56736000  1
  Ba  Ba11  1  0.33333300  0.66666700  0.83207600  1
  Ba  Ba12  1  0.18698600  0.43641100  0.14749500  1
  Ba  Ba13  1  0.75057500  0.56358900  0.64749500  1
  Ba  Ba14  1  0.55186200  0.81585900  0.48996500  1
  Ba  Ba15  1  0.92466800  0.77225700  0.41254800  1
  Ba  Ba16  1  0.81585900  0.55186200  0.98996500  1
  Ba  Ba17  1  0.69114200  0.67021500  0.34405800  1
  Ba  Ba18  1  0.87491200  0.39549700  0.14088600  1
  Ba  Ba19  1  0.86148100  0.77941300  0.06736000  1
  Ba  Ba20  1  0.09904600  0.57040000  0.98490300  1
  Ba  Ba21  1  0.56358900  0.75057500  0.14749500  1
  Ba  Ba22  1  0.66868700  0.02008400  0.72182000  1
  Ba  Ba23  1  0.77225700  0.92466800  0.91254800  1
  Ba  Ba24  1  0.52058500  0.12508800  0.14088600  1
  Ba  Ba25  1  0.91793200  0.13851900  0.06736000  1
  Ba  Ba26  1  0.32978500  0.02092700  0.34405800  1
  Ba  Ba27  1  0.00000000  0.00000000  0.24943900  1
  Ba  Ba28  1  0.64860300  0.97991600  0.22182000  1
  Ba  Ba29  1  0.15241000  0.22774300  0.91254800  1
  Ba  Ba30  1  0.13851900  0.91793200  0.56736000  1
  Ba  Ba31  1  0.42960000  0.52864600  0.98490300  1
  Ba  Ba32  1  0.97907300  0.30885800  0.34405800  1
  Ba  Ba33  1  0.35139700  0.33131300  0.72182000  1
  Ba  Ba34  1  0.33131300  0.35139700  0.22182000  1
  Ba  Ba35  1  0.97991600  0.64860300  0.72182000  1
  Ba  Ba36  1  0.90095400  0.47135400  0.48490300  1
  Ba  Ba37  1  0.66666700  0.33333300  0.80113300  1
  Ba  Ba38  1  0.57040000  0.09904600  0.48490300  1
  Ba  Ba39  1  0.73600400  0.18414100  0.98996500  1
  Ba  Ba40  1  0.33333300  0.66666700  0.30113300  1
  Ba  Ba41  1  0.00000000  0.00000000  0.74943900  1
  Ba  Ba42  1  0.30885800  0.97907300  0.84405800  1
  Ba  Ba43  1  0.60450300  0.47941500  0.14088600  1
  Ba  Ba44  1  0.77941300  0.86148100  0.56736000  1
  Ba  Ba45  1  0.66666700  0.33333300  0.33207600  1
  Ba  Ba46  1  0.26399600  0.44813800  0.48996500  1
  Ba  Ba47  1  0.22058700  0.08206800  0.06736000  1
  Ba  Ba48  1  0.43641100  0.18698600  0.64749500  1
  Ba  Ba49  1  0.22774300  0.15241000  0.41254800  1
  Ba  Ba50  1  0.18414100  0.73600400  0.48996500  1
  Ba  Ba51  1  0.44813800  0.26399600  0.98996500  1
  Ba  Ba52  1  0.02008400  0.66868700  0.22182000  1
  Ba  Ba53  1  0.84759000  0.07533200  0.41254800  1
  W  W54  1  0.76399800  0.20390700  0.32568800  1
  W  W55  1  0.22491100  0.10450100  0.73297700  1
  W  W56  1  0.10978900  0.54878200  0.31959500  1
  W  W57  1  0.56100700  0.45121800  0.81959500  1
  W  W58  1  0.54878200  0.10978900  0.81959500  1
  W  W59  1  0.20390700  0.76399800  0.82568800  1
  W  W60  1  0.43990900  0.23600200  0.32568800  1
  W  W61  1  0.10450100  0.22491100  0.23297700  1
  W  W62  1  0.89021100  0.43899300  0.81959500  1
  W  W63  1  0.56009100  0.79609300  0.82568800  1
  W  W64  1  0.23600200  0.43990900  0.82568800  1
  W  W65  1  0.89549900  0.12041000  0.73297700  1
  W  W66  1  0.45121800  0.56100700  0.31959500  1
  W  W67  1  0.87959000  0.77508900  0.73297700  1
  W  W68  1  0.43899300  0.89021100  0.31959500  1
  W  W69  1  0.79609300  0.56009100  0.32568800  1
  W  W70  1  0.77508900  0.87959000  0.23297700  1
  W  W71  1  0.12041000  0.89549900  0.23297700  1
  N  N72  1  0.69214800  0.51792200  0.40406300  1
  N  N73  1  0.45850500  0.03397000  0.71866600  1
  N  N74  1  0.52584000  0.32687200  0.23716100  1
  N  N75  1  0.14843100  0.16522800  0.15390900  1
  N  N76  1  0.83128500  0.47490800  0.71694000  1
  N  N77  1  0.82577400  0.30785200  0.40406300  1
  N  N78  1  0.33865900  0.81351800  0.39828100  1
  N  N79  1  0.16871500  0.64362300  0.21694000  1
  N  N80  1  0.51792200  0.69214800  0.90406300  1
  N  N81  1  0.52514100  0.18648200  0.89828100  1
  N  N82  1  0.07224200  0.27520300  0.10644200  1
  N  N83  1  0.48207800  0.17422600  0.40406300  1
  N  N84  1  0.05900500  0.57759300  0.44961000  1
  N  N85  1  0.85949100  0.84913300  0.82708500  1
  N  N86  1  0.39085200  0.27126800  0.44917200  1
  N  N87  1  0.30695500  0.18586400  0.84155300  1
  N  N88  1  0.18586400  0.30695500  0.34155300  1
  N  N89  1  0.47490800  0.83128500  0.21694000  1
  N  N90  1  0.48141300  0.42240700  0.94961000  1
  N  N91  1  0.79703900  0.72479700  0.60644200  1
  N  N92  1  0.47416000  0.80103200  0.73716100  1
  N  N93  1  0.64199300  0.80494500  0.71067500  1
  N  N94  1  0.42240700  0.48141300  0.44961000  1
  N  N95  1  0.57759300  0.05900500  0.94961000  1
  N  N96  1  0.87890900  0.69304500  0.84155300  1
  N  N97  1  0.98964200  0.14050900  0.82708500  1
  N  N98  1  0.85156900  0.01679700  0.65390900  1
  N  N99  1  0.72479700  0.79703900  0.10644200  1
  N  N100  1  0.32687200  0.52584000  0.73716100  1
  N  N101  1  0.60914800  0.88041600  0.94917200  1
  N  N102  1  0.72873200  0.11958400  0.44917200  1
  N  N103  1  0.27520300  0.07224200  0.60644200  1
  N  N104  1  0.16295200  0.35800700  0.71067500  1
  N  N105  1  0.01035800  0.15086700  0.32708500  1
  N  N106  1  0.80494500  0.64199300  0.21067500  1
  N  N107  1  0.67312800  0.19896800  0.23716100  1
  N  N108  1  0.88041600  0.60914800  0.44917200  1
  N  N109  1  0.84913300  0.85949100  0.32708500  1
  N  N110  1  0.15086700  0.01035800  0.82708500  1
  N  N111  1  0.35637700  0.52509200  0.21694000  1
  N  N112  1  0.81413600  0.12109100  0.84155300  1
  N  N113  1  0.66134100  0.47485900  0.89828100  1
  N  N114  1  0.57546400  0.54149500  0.71866600  1
  N  N115  1  0.80103200  0.47416000  0.23716100  1
  N  N116  1  0.47485900  0.66134100  0.39828100  1
  N  N117  1  0.54149500  0.57546400  0.21866600  1
  N  N118  1  0.64362300  0.16871500  0.71694000  1
  N  N119  1  0.94099500  0.51858700  0.94961000  1
  N  N120  1  0.20296100  0.92775800  0.10644200  1
  N  N121  1  0.01679700  0.85156900  0.15390900  1
  N  N122  1  0.18648200  0.52514100  0.39828100  1
  N  N123  1  0.51858700  0.94099500  0.44961000  1
  N  N124  1  0.98320300  0.83477200  0.65390900  1
  N  N125  1  0.81351800  0.33865900  0.89828100  1
  N  N126  1  0.27126800  0.39085200  0.94917200  1
  N  N127  1  0.14050900  0.98964200  0.32708500  1
  N  N128  1  0.83704800  0.19505500  0.21067500  1
  N  N129  1  0.42453600  0.96603000  0.21866600  1
  N  N130  1  0.03397000  0.45850500  0.21866600  1
  N  N131  1  0.92775800  0.20296100  0.60644200  1
  N  N132  1  0.19505500  0.83704800  0.71067500  1
  N  N133  1  0.11958400  0.72873200  0.94917200  1
  N  N134  1  0.69304500  0.87890900  0.34155300  1
  N  N135  1  0.16522800  0.14843100  0.65390900  1
  N  N136  1  0.19896800  0.67312800  0.73716100  1
  N  N137  1  0.83477200  0.98320300  0.15390900  1
  N  N138  1  0.35800700  0.16295200  0.21067500  1
  N  N139  1  0.96603000  0.42453600  0.71866600  1
  N  N140  1  0.52509200  0.35637700  0.71694000  1
  N  N141  1  0.17422600  0.48207800  0.90406300  1
  N  N142  1  0.12109100  0.81413600  0.34155300  1
  N  N143  1  0.30785200  0.82577400  0.90406300  1
