# generated using pymatgen
data_NaMo6Br13
_symmetry_space_group_name_H-M   'P 1'
_cell_length_a   9.59774700
_cell_length_b   9.74392106
_cell_length_c   14.93094209
_cell_angle_alpha   96.72876191
_cell_angle_beta   101.50827039
_cell_angle_gamma   115.40017524
_symmetry_Int_Tables_number   1
_chemical_formula_structural   NaMo6Br13
_chemical_formula_sum   'Na2 Mo12 Br26'
_cell_volume   1203.14159629
_cell_formula_units_Z   2
loop_
 _symmetry_equiv_pos_site_id
 _symmetry_equiv_pos_as_xyz
  1  'x, y, z'
loop_
 _atom_site_type_symbol
 _atom_site_label
 _atom_site_symmetry_multiplicity
 _atom_site_fract_x
 _atom_site_fract_y
 _atom_site_fract_z
 _atom_site_occupancy
  Na  Na0  1  0.00185200  0.75755000  0.22907300  1
  Na  Na1  1  0.99814800  0.24245000  0.77092700  1
  Mo  Mo2  1  0.45975100  0.31816600  0.41643200  1
  Mo  Mo3  1  0.54024900  0.68183400  0.58356800  1
  Mo  Mo4  1  0.44880800  0.01051800  0.11524000  1
  Mo  Mo5  1  0.55119200  0.98948200  0.88476000  1
  Mo  Mo6  1  0.37272600  0.54106900  0.40494900  1
  Mo  Mo7  1  0.68239200  0.61594900  0.46179800  1
  Mo  Mo8  1  0.39952900  0.78132500  0.97634500  1
  Mo  Mo9  1  0.31760800  0.38405100  0.53820200  1
  Mo  Mo10  1  0.62727400  0.45893100  0.59505100  1
  Mo  Mo11  1  0.30552800  0.99344300  0.93952400  1
  Mo  Mo12  1  0.69447200  0.00655700  0.06047600  1
  Mo  Mo13  1  0.60047100  0.21867500  0.02365500  1
  Br  Br14  1  0.84243400  0.21567900  0.96991100  1
  Br  Br15  1  0.23547700  0.60857300  0.52603300  1
  Br  Br16  1  0.15756600  0.78432100  0.03008900  1
  Br  Br17  1  0.76452300  0.39142700  0.47396700  1
  Br  Br18  1  0.61250100  0.95718600  0.70866300  1
  Br  Br19  1  0.74001900  0.52477700  0.06130600  1
  Br  Br20  1  0.15544500  0.24738500  0.36450900  1
  Br  Br21  1  0.25998100  0.47522300  0.93869400  1
  Br  Br22  1  0.40714500  0.16502700  0.54942900  1
  Br  Br23  1  0.38749900  0.04281400  0.29133700  1
  Br  Br24  1  0.96448800  0.00867400  0.14078900  1
  Br  Br25  1  0.03551200  0.99132600  0.85921100  1
  Br  Br26  1  0.74217100  0.23160300  0.19632300  1
  Br  Br27  1  0.51902500  0.47896200  0.28777300  1
  Br  Br28  1  0.54099000  0.80053600  0.15026400  1
  Br  Br29  1  0.94184500  0.78377600  0.41218200  1
  Br  Br30  1  0.25782900  0.76839700  0.80367700  1
  Br  Br31  1  0.84455500  0.75261500  0.63549100  1
  Br  Br32  1  0.64654800  0.78545900  0.92530100  1
  Br  Br33  1  0.59285500  0.83497300  0.45057100  1
  Br  Br34  1  0.35345200  0.21454100  0.07469900  1
  Br  Br35  1  0.81003100  0.41945300  0.73550400  1
  Br  Br36  1  0.45901000  0.19946400  0.84973600  1
  Br  Br37  1  0.18996900  0.58054700  0.26449600  1
  Br  Br38  1  0.05815500  0.21622400  0.58781800  1
  Br  Br39  1  0.48097500  0.52103800  0.71222700  1
