# generated using pymatgen
data_Zn3In2O6
_symmetry_space_group_name_H-M   'P 1'
_cell_length_a   5.89610100
_cell_length_b   6.81513921
_cell_length_c   14.44803049
_cell_angle_alpha   96.68681706
_cell_angle_beta   93.99929772
_cell_angle_gamma   89.96582500
_symmetry_Int_Tables_number   1
_chemical_formula_structural   Zn3In2O6
_chemical_formula_sum   'Zn12 In8 O24'
_cell_volume   575.19160066
_cell_formula_units_Z   4
loop_
 _symmetry_equiv_pos_site_id
 _symmetry_equiv_pos_as_xyz
  1  'x, y, z'
loop_
 _atom_site_type_symbol
 _atom_site_label
 _atom_site_symmetry_multiplicity
 _atom_site_fract_x
 _atom_site_fract_y
 _atom_site_fract_z
 _atom_site_occupancy
  Zn  Zn0  1  0.93308600  0.89846700  0.59524900  1
  Zn  Zn1  1  0.87380500  0.80633200  0.21445200  1
  Zn  Zn2  1  0.92969700  0.39760700  0.59229100  1
  Zn  Zn3  1  0.86587700  0.30051500  0.21537500  1
  Zn  Zn4  1  0.63213300  0.44205700  0.78576800  1
  Zn  Zn5  1  0.56762100  0.34393800  0.39653000  1
  Zn  Zn6  1  0.36584800  0.05782700  0.21326400  1
  Zn  Zn7  1  0.63104800  0.95168500  0.78802500  1
  Zn  Zn8  1  0.43696700  0.64841600  0.59585600  1
  Zn  Zn9  1  0.37039200  0.54935600  0.21382000  1
  Zn  Zn10  1  0.12961300  0.19659300  0.78562700  1
  Zn  Zn11  1  0.06669100  0.10477300  0.39651400  1
  In  In12  1  0.99970600  0.00292700  0.00252700  1
  In  In13  1  0.99879800  0.49823900  0.00231000  1
  In  In14  1  0.42821600  0.15263300  0.59327000  1
  In  In15  1  0.49953600  0.24997600  0.99961400  1
  In  In16  1  0.56831700  0.85680200  0.40507200  1
  In  In17  1  0.50287200  0.75059500  0.00242300  1
  In  In18  1  0.13026100  0.69417700  0.77866500  1
  In  In19  1  0.06717800  0.59338100  0.40737300  1
  O  O20  1  0.94994700  0.94368200  0.74563100  1
  O  O21  1  0.91711500  0.86525900  0.42410100  1
  O  O22  1  0.84872400  0.76851000  0.07486600  1
  O  O23  1  0.95302600  0.42867900  0.74656300  1
  O  O24  1  0.89409200  0.34399400  0.42586500  1
  O  O25  1  0.84362900  0.26871100  0.07539300  1
  O  O26  1  0.65415700  0.48236100  0.92601300  1
  O  O27  1  0.45595500  0.18537400  0.74765600  1
  O  O28  1  0.60261900  0.40551800  0.58097600  1
  O  O29  1  0.39542100  0.11940500  0.43142500  1
  O  O30  1  0.54121300  0.31108000  0.25283700  1
  O  O31  1  0.34565900  0.01797500  0.07398000  1
  O  O32  1  0.65514400  0.98113000  0.92688200  1
  O  O33  1  0.47096600  0.68908400  0.74642400  1
  O  O34  1  0.59937400  0.88529800  0.56767000  1
  O  O35  1  0.41418400  0.59501100  0.42362900  1
  O  O36  1  0.54177200  0.81523400  0.25323900  1
  O  O37  1  0.34551500  0.51885900  0.07420900  1
  O  O38  1  0.15432500  0.73194500  0.92646300  1
  O  O39  1  0.09914500  0.64444300  0.57852600  1
  O  O40  1  0.04191000  0.56199400  0.25372400  1
  O  O41  1  0.15314400  0.23139800  0.92596700  1
  O  O42  1  0.08111400  0.14481600  0.58119100  1
  O  O43  1  0.04419100  0.06394500  0.25274500  1
