# generated using pymatgen
data_Yb2Te5O13
_symmetry_space_group_name_H-M   'P 1'
_cell_length_a   7.14985100
_cell_length_b   8.85988150
_cell_length_c   10.34643679
_cell_angle_alpha   90.87746233
_cell_angle_beta   91.51426381
_cell_angle_gamma   104.33186909
_symmetry_Int_Tables_number   1
_chemical_formula_structural   Yb2Te5O13
_chemical_formula_sum   'Yb4 Te10 O26'
_cell_volume   634.63293399
_cell_formula_units_Z   2
loop_
 _symmetry_equiv_pos_site_id
 _symmetry_equiv_pos_as_xyz
  1  'x, y, z'
loop_
 _atom_site_type_symbol
 _atom_site_label
 _atom_site_symmetry_multiplicity
 _atom_site_fract_x
 _atom_site_fract_y
 _atom_site_fract_z
 _atom_site_occupancy
  Yb  Yb0  1  0.00700200  0.26515400  0.75956900  1
  Yb  Yb1  1  0.55225700  0.47926100  0.82139500  1
  Yb  Yb2  1  0.44774300  0.52073900  0.17860500  1
  Yb  Yb3  1  0.99299800  0.73484600  0.24043100  1
  Te  Te4  1  0.74011600  0.39425300  0.48272500  1
  Te  Te5  1  0.29517600  0.14101000  0.02422500  1
  Te  Te6  1  0.13735700  0.19255700  0.36040200  1
  Te  Te7  1  0.86264300  0.80744300  0.63959800  1
  Te  Te8  1  0.54342900  0.88561500  0.30340600  1
  Te  Te9  1  0.70482400  0.85899000  0.97577500  1
  Te  Te10  1  0.45657100  0.11438500  0.69659400  1
  Te  Te11  1  0.12424800  0.63889700  0.90586300  1
  Te  Te12  1  0.25988400  0.60574700  0.51727500  1
  Te  Te13  1  0.87575200  0.36110300  0.09413700  1
  O  O14  1  0.23512100  0.50442500  0.81107800  1
  O  O15  1  0.96617000  0.35137500  0.55626000  1
  O  O16  1  0.31742100  0.77840800  0.21895500  1
  O  O17  1  0.67205500  0.51437700  0.61582600  1
  O  O18  1  0.87338700  0.49163100  0.90449800  1
  O  O19  1  0.12661300  0.50836900  0.09550200  1
  O  O20  1  0.35199900  0.01372900  0.88005100  1
  O  O21  1  0.52743200  0.67089800  0.99924900  1
  O  O22  1  0.67993600  0.77171000  0.78345000  1
  O  O23  1  0.93987300  0.82372800  0.02963000  1
  O  O24  1  0.44685700  0.81125700  0.48388700  1
  O  O25  1  0.93942300  0.26840200  0.27268000  1
  O  O26  1  0.68257900  0.22159200  0.78104500  1
  O  O27  1  0.32794500  0.48562300  0.38417400  1
  O  O28  1  0.47256800  0.32910200  0.00075100  1
  O  O29  1  0.68070300  0.73477500  0.28849800  1
  O  O30  1  0.95645400  0.01894600  0.67295800  1
  O  O31  1  0.06012700  0.17627200  0.97037000  1
  O  O32  1  0.03383000  0.64862500  0.44374000  1
  O  O33  1  0.64800100  0.98627100  0.11994900  1
  O  O34  1  0.32006400  0.22829000  0.21655000  1
  O  O35  1  0.76487900  0.49557500  0.18892200  1
  O  O36  1  0.55314300  0.18874300  0.51611300  1
  O  O37  1  0.06057700  0.73159800  0.72732000  1
  O  O38  1  0.04354600  0.98105400  0.32704200  1
  O  O39  1  0.31929700  0.26522500  0.71150200  1
