# generated using pymatgen
data_BaU(SeO4)2
_symmetry_space_group_name_H-M   'P 1'
_cell_length_a   9.01791400
_cell_length_b   7.83518900
_cell_length_c   13.82613639
_cell_angle_alpha   72.95345848
_cell_angle_beta   90.00000000
_cell_angle_gamma   90.00000000
_symmetry_Int_Tables_number   1
_chemical_formula_structural   BaU(SeO4)2
_chemical_formula_sum   'Ba4 U4 Se8 O32'
_cell_volume   933.99533452
_cell_formula_units_Z   4
loop_
 _symmetry_equiv_pos_site_id
 _symmetry_equiv_pos_as_xyz
  1  'x, y, z'
loop_
 _atom_site_type_symbol
 _atom_site_label
 _atom_site_symmetry_multiplicity
 _atom_site_fract_x
 _atom_site_fract_y
 _atom_site_fract_z
 _atom_site_occupancy
  Ba  Ba0  1  0.93110400  0.32480700  0.18591700  1
  Ba  Ba1  1  0.56889600  0.32480700  0.68591700  1
  Ba  Ba2  1  0.06889600  0.67519300  0.81408300  1
  Ba  Ba3  1  0.43110400  0.67519300  0.31408300  1
  U  U4  1  0.09000800  0.23627500  0.71129400  1
  U  U5  1  0.90999200  0.76372500  0.28870600  1
  U  U6  1  0.40999200  0.23627500  0.21129400  1
  U  U7  1  0.59000800  0.76372500  0.78870600  1
  Se  Se8  1  0.20929200  0.95909300  0.11622200  1
  Se  Se9  1  0.70929200  0.04090700  0.38377800  1
  Se  Se10  1  0.08378100  0.34522800  0.44369500  1
  Se  Se11  1  0.41621900  0.34522800  0.94369500  1
  Se  Se12  1  0.58378100  0.65477200  0.05630500  1
  Se  Se13  1  0.91621900  0.65477200  0.55630500  1
  Se  Se14  1  0.29070800  0.95909300  0.61622200  1
  Se  Se15  1  0.79070800  0.04090700  0.88377800  1
  O  O16  1  0.51934500  0.28105200  0.05712600  1
  O  O17  1  0.05261300  0.54665600  0.01644600  1
  O  O18  1  0.44738700  0.54665600  0.51644600  1
  O  O19  1  0.10537900  0.94362900  0.63558500  1
  O  O20  1  0.18778200  0.16679200  0.14105500  1
  O  O21  1  0.39462100  0.94362900  0.13558500  1
  O  O22  1  0.14840400  0.79155700  0.22697900  1
  O  O23  1  0.68778200  0.83320800  0.35894500  1
  O  O24  1  0.98065500  0.28105200  0.55712600  1
  O  O25  1  0.10289500  0.02140400  0.81913200  1
  O  O26  1  0.71145700  0.64471900  0.71443300  1
  O  O27  1  0.64840400  0.20844300  0.27302100  1
  O  O28  1  0.35159600  0.79155700  0.72697900  1
  O  O29  1  0.60289500  0.97859600  0.68086800  1
  O  O30  1  0.60537900  0.05637100  0.86441500  1
  O  O31  1  0.55261300  0.45334400  0.48355400  1
  O  O32  1  0.94738700  0.45334400  0.98355400  1
  O  O33  1  0.89462100  0.05637100  0.36441500  1
  O  O34  1  0.94969200  0.45419500  0.35419300  1
  O  O35  1  0.44969200  0.54580500  0.14580700  1
  O  O36  1  0.48065500  0.71894800  0.94287400  1
  O  O37  1  0.39710500  0.02140400  0.31913200  1
  O  O38  1  0.89710500  0.97859600  0.18086800  1
  O  O39  1  0.01934500  0.71894800  0.44287400  1
  O  O40  1  0.21145700  0.35528100  0.78556700  1
  O  O41  1  0.78854300  0.64471900  0.21443300  1
  O  O42  1  0.28854300  0.35528100  0.28556700  1
  O  O43  1  0.81221800  0.83320800  0.85894500  1
  O  O44  1  0.55030800  0.45419500  0.85419300  1
  O  O45  1  0.31221800  0.16679200  0.64105500  1
  O  O46  1  0.05030800  0.54580500  0.64580700  1
  O  O47  1  0.85159600  0.20844300  0.77302100  1
