# generated using pymatgen
data_GaP3(NCl3)3
_symmetry_space_group_name_H-M   'P 1'
_cell_length_a   11.23480100
_cell_length_b   12.33366700
_cell_length_c   24.95346541
_cell_angle_alpha   88.02652995
_cell_angle_beta   90.00000000
_cell_angle_gamma   90.00000000
_symmetry_Int_Tables_number   1
_chemical_formula_structural   GaP3(NCl3)3
_chemical_formula_sum   'Ga8 P24 N24 Cl72'
_cell_volume   3455.65839497
_cell_formula_units_Z   8
loop_
 _symmetry_equiv_pos_site_id
 _symmetry_equiv_pos_as_xyz
  1  'x, y, z'
loop_
 _atom_site_type_symbol
 _atom_site_label
 _atom_site_symmetry_multiplicity
 _atom_site_fract_x
 _atom_site_fract_y
 _atom_site_fract_z
 _atom_site_occupancy
  Ga  Ga0  1  0.92474200  0.09545000  0.86916300  1
  Ga  Ga1  1  0.07525800  0.90455000  0.13083700  1
  Ga  Ga2  1  0.61222800  0.65897100  0.11836200  1
  Ga  Ga3  1  0.11222800  0.34102900  0.38163800  1
  Ga  Ga4  1  0.38777200  0.34102900  0.88163800  1
  Ga  Ga5  1  0.57525800  0.09545000  0.36916300  1
  Ga  Ga6  1  0.42474200  0.90455000  0.63083700  1
  Ga  Ga7  1  0.88777200  0.65897100  0.61836200  1
  P  P8  1  0.45903900  0.16496700  0.12180300  1
  P  P9  1  0.66596400  0.52909800  0.68132900  1
  P  P10  1  0.45672800  0.47151800  0.62884000  1
  P  P11  1  0.69692600  0.97341900  0.93088100  1
  P  P12  1  0.81219400  0.97633600  0.31718400  1
  P  P13  1  0.84182200  0.52601100  0.06784800  1
  P  P14  1  0.34182200  0.47398900  0.43215200  1
  P  P15  1  0.54096100  0.83503300  0.87819700  1
  P  P16  1  0.95903900  0.83503300  0.37819700  1
  P  P17  1  0.04327200  0.47151800  0.12884000  1
  P  P18  1  0.19692600  0.02658100  0.56911900  1
  P  P19  1  0.33403600  0.47090200  0.31867100  1
  P  P20  1  0.54327200  0.52848200  0.37116000  1
  P  P21  1  0.80307400  0.97341900  0.43088100  1
  P  P22  1  0.16596400  0.47090200  0.81867100  1
  P  P23  1  0.04096100  0.16496700  0.62180300  1
  P  P24  1  0.30307400  0.02658100  0.06911900  1
  P  P25  1  0.65817800  0.52601100  0.56784800  1
  P  P26  1  0.15817800  0.47398900  0.93215200  1
  P  P27  1  0.68780600  0.97633600  0.81718400  1
  P  P28  1  0.83403600  0.52909800  0.18132900  1
  P  P29  1  0.95672800  0.52848200  0.87116000  1
  P  P30  1  0.31219400  0.02366400  0.18281600  1
  P  P31  1  0.18780600  0.02366400  0.68281600  1
  N  N32  1  0.40695500  0.11784500  0.17739000  1
  N  N33  1  0.27317300  0.43445600  0.37724600  1
  N  N34  1  0.52813600  0.50259600  0.68114200  1
  N  N35  1  0.59304500  0.88215500  0.82261000  1
  N  N36  1  0.72682700  0.56554400  0.62275400  1
  N  N37  1  0.47186400  0.49740400  0.31885800  1
  N  N38  1  0.26047600  0.99271300  0.62749100  1
  N  N39  1  0.22682700  0.43445600  0.87724600  1
  N  N40  1  0.97924000  0.49819900  0.07306600  1
  N  N41  1  0.60301600  0.87778400  0.93084900  1
  N  N42  1  0.73952400  0.00728700  0.37250900  1
  N  N43  1  0.10301600  0.12221600  0.56915100  1
  N  N44  1  0.23952400  0.99271300  0.12749100  1
  N  N45  1  0.77317300  0.56554400  0.12275400  1
  N  N46  1  0.02076000  0.50180100  0.92693400  1
  N  N47  1  0.89698400  0.87778400  0.43084900  1
  N  N48  1  0.09304500  0.11784500  0.67739000  1
  N  N49  1  0.47924000  0.50180100  0.42693400  1
  N  N50  1  0.39698400  0.12221600  0.06915100  1
  N  N51  1  0.97186400  0.50259600  0.18114200  1
  N  N52  1  0.52076000  0.49819900  0.57306600  1
  N  N53  1  0.76047600  0.00728700  0.87250900  1
  N  N54  1  0.02813600  0.49740400  0.81885800  1
  N  N55  1  0.90695500  0.88215500  0.32261000  1
  Cl  Cl56  1  0.56749800  0.19481200  0.43933500  1
  Cl  Cl57  1  0.67379400  0.82555800  0.11798400  1
  Cl  Cl58  1  0.57859400  0.19692400  0.29650800  1
  Cl  Cl59  1  0.20277900  0.54134700  0.12897400  1
  Cl  Cl60  1  0.61377800  0.11187900  0.78582100  1
  Cl  Cl61  1  0.75623900  0.40216200  0.71334900  1
  Cl  Cl62  1  0.11377800  0.88812100  0.71417900  1
  Cl  Cl63  1  0.88622200  0.11187900  0.28582100  1
  Cl  Cl64  1  0.74333200  0.39803100  0.53834200  1
  Cl  Cl65  1  0.37604000  0.89375000  0.03894300  1
  Cl  Cl66  1  0.67459000  0.93448100  0.48259700  1
  Cl  Cl67  1  0.45331900  0.32727700  0.12041300  1
  Cl  Cl68  1  0.12396000  0.89375000  0.53894300  1
  Cl  Cl69  1  0.43250200  0.80518800  0.56066500  1
  Cl  Cl70  1  0.04668100  0.32727700  0.62041300  1
  Cl  Cl71  1  0.36492700  0.86261500  0.88057300  1
  Cl  Cl72  1  0.55536800  0.03435200  0.63073200  1
  Cl  Cl73  1  0.75666800  0.39803100  0.03834200  1
  Cl  Cl74  1  0.06749800  0.80518800  0.06066500  1
  Cl  Cl75  1  0.58439900  0.68830300  0.36594500  1
  Cl  Cl76  1  0.87604000  0.10625000  0.46105700  1
  Cl  Cl77  1  0.81765900  0.64159600  0.01179700  1
  Cl  Cl78  1  0.19365900  0.06301900  0.23798900  1
  Cl  Cl79  1  0.25623900  0.59783800  0.78665100  1
  Cl  Cl80  1  0.91560100  0.68830300  0.86594500  1
  Cl  Cl81  1  0.82620600  0.82555800  0.61798400  1
  Cl  Cl82  1  0.50687900  0.61198200  0.18848300  1
  Cl  Cl83  1  0.05536800  0.96564800  0.86926800  1
  Cl  Cl84  1  0.62396000  0.10625000  0.96105700  1
  Cl  Cl85  1  0.69365900  0.93698100  0.26201100  1
  Cl  Cl86  1  0.24376100  0.59783800  0.28665100  1
  Cl  Cl87  1  0.07859400  0.80307600  0.20349200  1
  Cl  Cl88  1  0.30634100  0.06301900  0.73798900  1
  Cl  Cl89  1  0.42140600  0.80307600  0.70349200  1
  Cl  Cl90  1  0.93250200  0.19481200  0.93933500  1
  Cl  Cl91  1  0.80634100  0.93698100  0.76201100  1
  Cl  Cl92  1  0.24333200  0.60196900  0.96165800  1
  Cl  Cl93  1  0.79722100  0.45865300  0.87102600  1
  Cl  Cl94  1  0.70277900  0.45865300  0.37102600  1
  Cl  Cl95  1  0.17379400  0.17444200  0.38201600  1
  Cl  Cl96  1  0.48455600  0.38554400  0.95297900  1
  Cl  Cl97  1  0.98455600  0.61445600  0.54702100  1
  Cl  Cl98  1  0.82541000  0.93448100  0.98259700  1
  Cl  Cl99  1  0.30441700  0.35367500  0.26800400  1
  Cl  Cl100  1  0.32541000  0.06551900  0.51740300  1
  Cl  Cl101  1  0.31765900  0.35840400  0.48820300  1
  Cl  Cl102  1  0.08439900  0.31169700  0.13405500  1
  Cl  Cl103  1  0.99312100  0.61198200  0.68848300  1
  Cl  Cl104  1  0.19558300  0.35367500  0.76800400  1
  Cl  Cl105  1  0.00687900  0.38801800  0.31151700  1
  Cl  Cl106  1  0.49312100  0.38801800  0.81151700  1
  Cl  Cl107  1  0.95331900  0.67272300  0.37958700  1
  Cl  Cl108  1  0.38622200  0.88812100  0.21417900  1
  Cl  Cl109  1  0.94463200  0.03435200  0.13073200  1
  Cl  Cl110  1  0.25666800  0.60196900  0.46165800  1
  Cl  Cl111  1  0.44463200  0.96564800  0.36926800  1
  Cl  Cl112  1  0.01544400  0.38554400  0.45297900  1
  Cl  Cl113  1  0.92140600  0.19692400  0.79650800  1
  Cl  Cl114  1  0.17459000  0.06551900  0.01740300  1
  Cl  Cl115  1  0.51544400  0.61445600  0.04702100  1
  Cl  Cl116  1  0.13507300  0.86261500  0.38057300  1
  Cl  Cl117  1  0.29722100  0.54134700  0.62897400  1
  Cl  Cl118  1  0.18234100  0.35840400  0.98820300  1
  Cl  Cl119  1  0.32620600  0.17444200  0.88201600  1
  Cl  Cl120  1  0.54668100  0.67272300  0.87958700  1
  Cl  Cl121  1  0.63507300  0.13738500  0.11942700  1
  Cl  Cl122  1  0.41560100  0.31169700  0.63405500  1
  Cl  Cl123  1  0.74376100  0.40216200  0.21334900  1
  Cl  Cl124  1  0.68234100  0.64159600  0.51179700  1
  Cl  Cl125  1  0.69558300  0.64632500  0.73199600  1
  Cl  Cl126  1  0.86492700  0.13738500  0.61942700  1
  Cl  Cl127  1  0.80441700  0.64632500  0.23199600  1
