# generated using pymatgen
data_La3NbO7
_symmetry_space_group_name_H-M   'P 1'
_cell_length_a   6.78151385
_cell_length_b   6.78151385
_cell_length_c   7.85493700
_cell_angle_alpha   90.00000000
_cell_angle_beta   90.00000000
_cell_angle_gamma   111.43734019
_symmetry_Int_Tables_number   1
_chemical_formula_structural   La3NbO7
_chemical_formula_sum   'La6 Nb2 O14'
_cell_volume   336.24876913
_cell_formula_units_Z   2
loop_
 _symmetry_equiv_pos_site_id
 _symmetry_equiv_pos_as_xyz
  1  'x, y, z'
loop_
 _atom_site_type_symbol
 _atom_site_label
 _atom_site_symmetry_multiplicity
 _atom_site_fract_x
 _atom_site_fract_y
 _atom_site_fract_z
 _atom_site_occupancy
  La  La0  1  0.93198500  0.47783900  0.75000000  1
  La  La1  1  0.06801500  0.52216100  0.25000000  1
  La  La2  1  0.00000000  0.00000000  0.50000000  1
  La  La3  1  0.00000000  0.00000000  0.00000000  1
  La  La4  1  0.52216100  0.06801500  0.25000000  1
  La  La5  1  0.47783900  0.93198500  0.75000000  1
  Nb  Nb6  1  0.50000000  0.50000000  0.00000000  1
  Nb  Nb7  1  0.50000000  0.50000000  0.50000000  1
  O  O8  1  0.56327600  0.56327600  0.75000000  1
  O  O9  1  0.43672400  0.43672400  0.25000000  1
  O  O10  1  0.84662500  0.10740600  0.75000000  1
  O  O11  1  0.15337500  0.89259400  0.25000000  1
  O  O12  1  0.10740600  0.84662500  0.75000000  1
  O  O13  1  0.89259400  0.15337500  0.25000000  1
  O  O14  1  0.43797500  0.18700200  0.96788800  1
  O  O15  1  0.56202500  0.81299800  0.46788800  1
  O  O16  1  0.18700200  0.43797500  0.96788800  1
  O  O17  1  0.81299800  0.56202500  0.46788800  1
  O  O18  1  0.43797500  0.18700200  0.53211200  1
  O  O19  1  0.56202500  0.81299800  0.03211200  1
  O  O20  1  0.81299800  0.56202500  0.03211200  1
  O  O21  1  0.18700200  0.43797500  0.53211200  1
