# generated using pymatgen
data_Mg2Al4Si5O18
_symmetry_space_group_name_H-M   'P 1'
_cell_length_a   9.44996100
_cell_length_b   9.83578512
_cell_length_c   9.90314469
_cell_angle_alpha   119.49771292
_cell_angle_beta   89.97593763
_cell_angle_gamma   90.05845626
_symmetry_Int_Tables_number   1
_chemical_formula_structural   Mg2Al4Si5O18
_chemical_formula_sum   'Mg4 Al8 Si10 O36'
_cell_volume   801.15865402
_cell_formula_units_Z   2
loop_
 _symmetry_equiv_pos_site_id
 _symmetry_equiv_pos_as_xyz
  1  'x, y, z'
loop_
 _atom_site_type_symbol
 _atom_site_label
 _atom_site_symmetry_multiplicity
 _atom_site_fract_x
 _atom_site_fract_y
 _atom_site_fract_z
 _atom_site_occupancy
  Mg  Mg0  1  0.75249000  0.33055700  0.66251900  1
  Mg  Mg1  1  0.24758000  0.33201800  0.66565100  1
  Mg  Mg2  1  0.75166400  0.66728400  0.32900400  1
  Mg  Mg3  1  0.24751600  0.66586900  0.32449700  1
  Al  Al4  1  0.24938600  0.50296200  0.00256700  1
  Al  Al5  1  0.24865300  0.49885100  0.49749000  1
  Al  Al6  1  0.75169600  0.49830900  0.49702200  1
  Al  Al7  1  0.74907700  0.99837300  0.49596900  1
  Al  Al8  1  0.25080400  0.99861800  0.49696900  1
  Al  Al9  1  0.00125100  0.36366800  0.10314800  1
  Al  Al10  1  0.99994400  0.88767100  0.26324800  1
  Al  Al11  1  0.49927300  0.74175700  0.10449200  1
  Si  Si12  1  0.50007800  0.26833700  0.89904600  1
  Si  Si13  1  0.99974800  0.10295100  0.72934800  1
  Si  Si14  1  0.99983600  0.62493900  0.89065700  1
  Si  Si15  1  0.50024100  0.62663800  0.73042500  1
  Si  Si16  1  0.50067100  0.11359800  0.37833000  1
  Si  Si17  1  0.99914700  0.73225400  0.62449600  1
  Si  Si18  1  0.99924500  0.26612800  0.37877700  1
  Si  Si19  1  0.50101400  0.89798100  0.63275600  1
  Si  Si20  1  0.50027400  0.37508300  0.26669600  1
  Si  Si21  1  0.75047700  0.50163800  0.00181200  1
  O  O22  1  0.99918600  0.21755900  0.91120100  1
  O  O23  1  0.50701900  0.08146200  0.77643500  1
  O  O24  1  0.64818600  0.35189300  0.87576900  1
  O  O25  1  0.36209300  0.34757700  0.86397900  1
  O  O26  1  0.85050900  0.51524500  0.86789700  1
  O  O27  1  0.13803900  0.50876100  0.85619000  1
  O  O28  1  0.85733400  0.13483200  0.65054700  1
  O  O29  1  0.14211300  0.13433200  0.65066300  1
  O  O30  1  0.50065900  0.69326100  0.91175800  1
  O  O31  1  0.99310900  0.68464400  0.76252400  1
  O  O32  1  0.64000200  0.14573000  0.49216600  1
  O  O33  1  0.35951300  0.14401300  0.48890700  1
  O  O34  1  0.35944600  0.51552700  0.64877800  1
  O  O35  1  0.64106000  0.51492900  0.64882500  1
  O  O36  1  0.86007800  0.35124000  0.49448800  1
  O  O37  1  0.14055700  0.34960100  0.49065900  1
  O  O38  1  0.50100400  0.77164200  0.69304100  1
  O  O39  1  0.99874800  0.08350400  0.31683200  1
  O  O40  1  0.99900400  0.91927700  0.69058100  1
  O  O41  1  0.50141700  0.23497800  0.30957300  1
  O  O42  1  0.85755800  0.65475500  0.51538500  1
  O  O43  1  0.14271000  0.65614400  0.51976400  1
  O  O44  1  0.64289800  0.48360100  0.34313600  1
  O  O45  1  0.35875500  0.48300100  0.34491900  1
  O  O46  1  0.64015200  0.86656200  0.52306400  1
  O  O47  1  0.35969700  0.86999800  0.52760300  1
  O  O48  1  0.99307400  0.31311300  0.24582700  1
  O  O49  1  0.50068000  0.30306500  0.07832400  1
  O  O50  1  0.84941300  0.85569100  0.34828600  1
  O  O51  1  0.14881400  0.85752800  0.35066200  1
  O  O52  1  0.84611100  0.47763200  0.12412800  1
  O  O53  1  0.14429800  0.48782400  0.13832800  1
  O  O54  1  0.65276700  0.64539700  0.12328000  1
  O  O55  1  0.35905600  0.64825600  0.13819000  1
  O  O56  1  0.50582500  0.93801400  0.23998900  1
  O  O57  1  0.99905100  0.76392600  0.06338000  1
