# generated using pymatgen
data_Sn2P3O10
_symmetry_space_group_name_H-M   'P 1'
_cell_length_a   8.03846200
_cell_length_b   9.77470500
_cell_length_c   12.62584986
_cell_angle_alpha   76.57481824
_cell_angle_beta   90.00000000
_cell_angle_gamma   90.00000000
_symmetry_Int_Tables_number   1
_chemical_formula_structural   Sn2P3O10
_chemical_formula_sum   'Sn8 P12 O40'
_cell_volume   964.94935191
_cell_formula_units_Z   4
loop_
 _symmetry_equiv_pos_site_id
 _symmetry_equiv_pos_as_xyz
  1  'x, y, z'
loop_
 _atom_site_type_symbol
 _atom_site_label
 _atom_site_symmetry_multiplicity
 _atom_site_fract_x
 _atom_site_fract_y
 _atom_site_fract_z
 _atom_site_occupancy
  Sn  Sn0  1  0.44771600  0.54795800  0.14722400  1
  Sn  Sn1  1  0.55228400  0.45204200  0.85277600  1
  Sn  Sn2  1  0.89216900  0.23356100  0.40897200  1
  Sn  Sn3  1  0.94771600  0.95204200  0.85277600  1
  Sn  Sn4  1  0.05228400  0.04795800  0.14722400  1
  Sn  Sn5  1  0.39216900  0.26643900  0.59102800  1
  Sn  Sn6  1  0.60783100  0.73356100  0.40897200  1
  Sn  Sn7  1  0.10783100  0.76643900  0.59102800  1
  P  P8  1  0.41910700  0.22765000  0.05292100  1
  P  P9  1  0.08089300  0.72765000  0.05292100  1
  P  P10  1  0.21794800  0.04499500  0.35098800  1
  P  P11  1  0.92541400  0.59198300  0.26462700  1
  P  P12  1  0.78205200  0.95500500  0.64901200  1
  P  P13  1  0.57458600  0.09198300  0.26462700  1
  P  P14  1  0.28205200  0.54499500  0.35098800  1
  P  P15  1  0.91910700  0.27235000  0.94707900  1
  P  P16  1  0.58089300  0.77235000  0.94707900  1
  P  P17  1  0.71794800  0.45500500  0.64901200  1
  P  P18  1  0.42541400  0.90801700  0.73537300  1
  P  P19  1  0.07458600  0.40801700  0.73537300  1
  O  O20  1  0.39684700  0.12143200  0.31175000  1
  O  O21  1  0.30815300  0.42924600  0.28733900  1
  O  O22  1  0.78013600  0.99788300  0.52654500  1
  O  O23  1  0.69800700  0.18315400  0.30700700  1
  O  O24  1  0.19184700  0.92924600  0.28733900  1
  O  O25  1  0.38645600  0.06199100  0.71841200  1
  O  O26  1  0.08270000  0.15820800  0.30145000  1
  O  O27  1  0.71986400  0.49788300  0.52654500  1
  O  O28  1  0.41730000  0.65820800  0.30145000  1
  O  O29  1  0.97818900  0.26320000  0.06424600  1
  O  O30  1  0.58270000  0.34179200  0.69855000  1
  O  O31  1  0.88645600  0.43800900  0.28158800  1
  O  O32  1  0.10886900  0.87812500  0.06734400  1
  O  O33  1  0.91730000  0.84179200  0.69855000  1
  O  O34  1  0.60315300  0.87856800  0.68825000  1
  O  O35  1  0.02181100  0.73680000  0.93575400  1
  O  O36  1  0.80815300  0.07075400  0.71266100  1
  O  O37  1  0.30199300  0.81684600  0.69299300  1
  O  O38  1  0.10315300  0.62143200  0.31175000  1
  O  O39  1  0.89113100  0.12187500  0.93265600  1
  O  O40  1  0.28013600  0.50211700  0.47345500  1
  O  O41  1  0.77587400  0.37518100  0.91923200  1
  O  O42  1  0.22412600  0.62481900  0.08076800  1
  O  O43  1  0.06713000  0.34277500  0.86477800  1
  O  O44  1  0.39113100  0.37812500  0.06734400  1
  O  O45  1  0.69184700  0.57075400  0.71266100  1
  O  O46  1  0.21986400  0.00211700  0.47345500  1
  O  O47  1  0.72412600  0.87518100  0.91923200  1
  O  O48  1  0.61354400  0.93800900  0.28158800  1
  O  O49  1  0.52181100  0.76320000  0.06424600  1
  O  O50  1  0.11354400  0.56199100  0.71841200  1
  O  O51  1  0.93287000  0.65722500  0.13522200  1
  O  O52  1  0.43287000  0.84277500  0.86477800  1
  O  O53  1  0.47818900  0.23680000  0.93575400  1
  O  O54  1  0.27587400  0.12481900  0.08076800  1
  O  O55  1  0.56713000  0.15722500  0.13522200  1
  O  O56  1  0.19800700  0.31684600  0.69299300  1
  O  O57  1  0.80199300  0.68315400  0.30700700  1
  O  O58  1  0.89684700  0.37856800  0.68825000  1
  O  O59  1  0.60886900  0.62187500  0.93265600  1
