# generated using pymatgen
data_Sb6O13
_symmetry_space_group_name_H-M   'P 1'
_cell_length_a   7.43177900
_cell_length_b   7.39915500
_cell_length_c   10.35684245
_cell_angle_alpha   89.01531436
_cell_angle_beta   90.00000000
_cell_angle_gamma   90.00000000
_symmetry_Int_Tables_number   1
_chemical_formula_structural   Sb6O13
_chemical_formula_sum   'Sb12 O26'
_cell_volume   569.42711307
_cell_formula_units_Z   2
loop_
 _symmetry_equiv_pos_site_id
 _symmetry_equiv_pos_as_xyz
  1  'x, y, z'
loop_
 _atom_site_type_symbol
 _atom_site_label
 _atom_site_symmetry_multiplicity
 _atom_site_fract_x
 _atom_site_fract_y
 _atom_site_fract_z
 _atom_site_occupancy
  Sb  Sb0  1  0.25000000  0.72873400  0.72860900  1
  Sb  Sb1  1  0.50000000  0.50000000  0.00000000  1
  Sb  Sb2  1  0.00000000  0.50000000  0.00000000  1
  Sb  Sb3  1  0.75000000  0.27126600  0.27139100  1
  Sb  Sb4  1  0.50000000  0.00000000  0.00000000  1
  Sb  Sb5  1  0.75000000  0.75815000  0.74804800  1
  Sb  Sb6  1  0.25000000  0.75012000  0.25408800  1
  Sb  Sb7  1  0.50000000  0.50000000  0.50000000  1
  Sb  Sb8  1  0.00000000  0.50000000  0.50000000  1
  Sb  Sb9  1  0.75000000  0.24988000  0.74591200  1
  Sb  Sb10  1  0.25000000  0.24185000  0.25195200  1
  Sb  Sb11  1  0.00000000  0.00000000  0.00000000  1
  O  O12  1  0.44755200  0.69013100  0.37357100  1
  O  O13  1  0.75000000  0.45781200  0.13034600  1
  O  O14  1  0.25000000  0.49458000  0.16593400  1
  O  O15  1  0.45459900  0.30998400  0.36611200  1
  O  O16  1  0.55652100  0.21235300  0.88251500  1
  O  O17  1  0.94347900  0.21235300  0.88251500  1
  O  O18  1  0.44854100  0.20378600  0.12296600  1
  O  O19  1  0.75000000  0.00282100  0.07148700  1
  O  O20  1  0.25000000  0.99717900  0.92851300  1
  O  O21  1  0.75000000  0.00264500  0.68182500  1
  O  O22  1  0.55145900  0.79621400  0.87703400  1
  O  O23  1  0.94854100  0.79621400  0.87703400  1
  O  O24  1  0.44347900  0.78764700  0.11748500  1
  O  O25  1  0.05244800  0.69013100  0.37357100  1
  O  O26  1  0.54540100  0.69001600  0.63388800  1
  O  O27  1  0.95459900  0.69001600  0.63388800  1
  O  O28  1  0.25000000  0.51769400  0.58087800  1
  O  O29  1  0.75000000  0.50542000  0.83406600  1
  O  O30  1  0.75000000  0.48230600  0.41912200  1
  O  O31  1  0.04540100  0.30998400  0.36611200  1
  O  O32  1  0.55244800  0.30986900  0.62642900  1
  O  O33  1  0.94755200  0.30986900  0.62642900  1
  O  O34  1  0.05145900  0.20378600  0.12296600  1
  O  O35  1  0.25000000  0.99735500  0.31817500  1
  O  O36  1  0.05652100  0.78764700  0.11748500  1
  O  O37  1  0.25000000  0.54218800  0.86965400  1
