# generated using pymatgen
data_Al2O3
_symmetry_space_group_name_H-M   'P 1'
_cell_length_a   5.57588200
_cell_length_b   5.60413744
_cell_length_c   14.55960251
_cell_angle_alpha   78.93913714
_cell_angle_beta   81.82913668
_cell_angle_gamma   60.89849425
_symmetry_Int_Tables_number   1
_chemical_formula_structural   Al2O3
_chemical_formula_sum   'Al16 O24'
_cell_volume   389.50724499
_cell_formula_units_Z   8
loop_
 _symmetry_equiv_pos_site_id
 _symmetry_equiv_pos_as_xyz
  1  'x, y, z'
loop_
 _atom_site_type_symbol
 _atom_site_label
 _atom_site_symmetry_multiplicity
 _atom_site_fract_x
 _atom_site_fract_y
 _atom_site_fract_z
 _atom_site_occupancy
  Al  Al0  1  0.95396400  0.21197500  0.13471500  1
  Al  Al1  1  0.48472400  0.74233400  0.01880500  1
  Al  Al2  1  0.49072600  0.10440600  0.16259500  1
  Al  Al3  1  0.42877700  0.00888300  0.52413300  1
  Al  Al4  1  0.14164300  0.33717400  0.32915300  1
  Al  Al5  1  0.10308200  0.69719800  0.47050700  1
  Al  Al6  1  0.47376600  0.58457300  0.28867300  1
  Al  Al7  1  0.77283800  0.91893100  0.32672100  1
  Al  Al8  1  0.01804000  0.20560200  0.84155600  1
  Al  Al9  1  0.79006000  0.54433500  0.66365000  1
  Al  Al10  1  0.56029400  0.81874100  0.82945100  1
  Al  Al11  1  0.74177400  0.35097500  0.49011000  1
  Al  Al12  1  0.91658600  0.97427000  0.64848600  1
  Al  Al13  1  0.26768300  0.51497400  0.79056300  1
  Al  Al14  1  0.51607700  0.25455500  0.97574500  1
  Al  Al15  1  0.00582600  0.70957000  0.99834600  1
  O  O16  1  0.81270100  0.54475200  0.06867100  1
  O  O17  1  0.63295000  0.78820500  0.24880000  1
  O  O18  1  0.31563500  0.04139600  0.07725600  1
  O  O19  1  0.79945800  0.04387700  0.07426400  1
  O  O20  1  0.14535800  0.22647500  0.22479400  1
  O  O21  1  0.42729900  0.07711800  0.39649900  1
  O  O22  1  0.65531800  0.24958500  0.23407100  1
  O  O23  1  0.07350500  0.13925500  0.55831700  1
  O  O24  1  0.91748400  0.55237400  0.41605200  1
  O  O25  1  0.33908400  0.51034200  0.06109500  1
  O  O26  1  0.13395000  0.67926900  0.27174900  1
  O  O27  1  0.44122500  0.53569600  0.41654000  1
  O  O28  1  0.59421900  0.64448300  0.56258000  1
  O  O29  1  0.88744600  0.20429200  0.73085100  1
  O  O30  1  0.04836200  0.64998200  0.59397800  1
  O  O31  1  0.69812200  0.43299900  0.89927000  1
  O  O32  1  0.44642200  0.69711800  0.74051600  1
  O  O33  1  0.91696300  0.04185700  0.40820000  1
  O  O34  1  0.60633100  0.14000000  0.57696300  1
  O  O35  1  0.89454900  0.71156000  0.75419900  1
  O  O36  1  0.20867300  0.89816000  0.92029900  1
  O  O37  1  0.67330000  0.91659500  0.92951300  1
  O  O38  1  0.34294700  0.18091900  0.77878000  1
  O  O39  1  0.19184300  0.45039600  0.91333200  1
