# generated using pymatgen
data_Bi2O3
_symmetry_space_group_name_H-M   'P 1'
_cell_length_a   8.99506900
_cell_length_b   9.04747678
_cell_length_c   37.22627868
_cell_angle_alpha   94.51918591
_cell_angle_beta   94.54207636
_cell_angle_gamma   109.44262517
_symmetry_Int_Tables_number   1
_chemical_formula_structural   Bi2O3
_chemical_formula_sum   'Bi64 O96'
_cell_volume   2829.96760024
_cell_formula_units_Z   32
loop_
 _symmetry_equiv_pos_site_id
 _symmetry_equiv_pos_as_xyz
  1  'x, y, z'
loop_
 _atom_site_type_symbol
 _atom_site_label
 _atom_site_symmetry_multiplicity
 _atom_site_fract_x
 _atom_site_fract_y
 _atom_site_fract_z
 _atom_site_occupancy
  Bi  Bi0  1  0.00951300  0.71425400  0.06064600  1
  Bi  Bi1  1  0.59172800  0.76983600  0.03985400  1
  Bi  Bi2  1  0.21877000  0.54662400  0.12820500  1
  Bi  Bi3  1  0.85299400  0.34997900  0.17139400  1
  Bi  Bi4  1  0.61586100  0.31046200  0.26653200  1
  Bi  Bi5  1  0.22574400  0.39961900  0.03169600  1
  Bi  Bi6  1  0.57168800  0.59741300  0.19965900  1
  Bi  Bi7  1  0.60750800  0.46530800  0.10335900  1
  Bi  Bi8  1  0.20652200  0.36957300  0.24006100  1
  Bi  Bi9  1  0.83206100  0.14141100  0.33383100  1
  Bi  Bi10  1  0.97118000  0.10104900  0.09565300  1
  Bi  Bi11  1  0.33750800  0.17921000  0.16047900  1
  Bi  Bi12  1  0.44361400  0.94794100  0.37235900  1
  Bi  Bi13  1  0.20444700  0.90287200  0.46393200  1
  Bi  Bi14  1  0.77882700  0.28908200  0.03197100  1
  Bi  Bi15  1  0.83076200  0.02450300  0.23142200  1
  Bi  Bi16  1  0.20995700  0.06891400  0.30326900  1
  Bi  Bi17  1  0.36081000  0.05365800  0.05932800  1
  Bi  Bi18  1  0.81345400  0.98510400  0.43755400  1
  Bi  Bi19  1  0.99577600  0.79783300  0.16634100  1
  Bi  Bi20  1  0.56405800  0.70690400  0.30029900  1
  Bi  Bi21  1  0.42709600  0.74268700  0.52948800  1
  Bi  Bi22  1  0.94521900  0.77598600  0.36243300  1
  Bi  Bi23  1  0.05070900  0.55507400  0.57211500  1
  Bi  Bi24  1  0.81578600  0.51057300  0.66678100  1
  Bi  Bi25  1  0.58353600  0.92636000  0.13656700  1
  Bi  Bi26  1  0.37570100  0.89349000  0.23010900  1
  Bi  Bi27  1  0.44638100  0.62641600  0.43266800  1
  Bi  Bi28  1  0.77339600  0.79867800  0.59971400  1
  Bi  Bi29  1  0.97559600  0.64468800  0.25951200  1
  Bi  Bi30  1  0.80935500  0.66506200  0.50012400  1
  Bi  Bi31  1  0.40626400  0.56961100  0.64000700  1
  Bi  Bi32  1  0.59399400  0.40757400  0.36601200  1
  Bi  Bi33  1  0.03179900  0.34102600  0.73378200  1
  Bi  Bi34  1  0.16813600  0.30817000  0.49906600  1
  Bi  Bi35  1  0.64361200  0.14882300  0.77257900  1
  Bi  Bi36  1  0.53973100  0.37809100  0.56105700  1
  Bi  Bi37  1  0.40217700  0.10421600  0.86481300  1
  Bi  Bi38  1  0.17966400  0.51285900  0.33891900  1
  Bi  Bi39  1  0.03144700  0.22545400  0.63155500  1
  Bi  Bi40  1  0.97442700  0.46990400  0.42776000  1
  Bi  Bi41  1  0.39929900  0.40138000  0.80019200  1
  Bi  Bi42  1  0.41027500  0.26905800  0.70328000  1
  Bi  Bi43  1  0.01457300  0.18804800  0.83824900  1
  Bi  Bi44  1  0.56820900  0.24425000  0.46088300  1
  Bi  Bi45  1  0.19619400  0.99996500  0.56723300  1
  Bi  Bi46  1  0.62591400  0.93505500  0.93017200  1
  Bi  Bi47  1  0.76470700  0.90753400  0.70029000  1
  Bi  Bi48  1  0.14635500  0.97688500  0.76265300  1
  Bi  Bi49  1  0.24017100  0.75602600  0.97523000  1
  Bi  Bi50  1  0.78128300  0.11911400  0.53734200  1
  Bi  Bi51  1  0.57635200  0.09303600  0.63047600  1
  Bi  Bi52  1  0.64595100  0.82834900  0.83285200  1
  Bi  Bi53  1  0.19805800  0.20098400  0.40017900  1
  Bi  Bi54  1  0.01023500  0.85897900  0.89757600  1
  Bi  Bi55  1  0.17517100  0.84535800  0.66022100  1
  Bi  Bi56  1  0.79432600  0.60873400  0.76599900  1
  Bi  Bi57  1  0.37073000  0.50884400  0.90239300  1
  Bi  Bi58  1  0.76426000  0.60533300  0.96524600  1
  Bi  Bi59  1  0.38015700  0.71281500  0.73844500  1
  Bi  Bi60  1  0.17780000  0.66559800  0.82720500  1
  Bi  Bi61  1  0.76134600  0.44234900  0.86111100  1
  Bi  Bi62  1  0.42031400  0.21835000  0.96629900  1
  Bi  Bi63  1  0.97167500  0.32523100  0.93775800  1
  O  O64  1  0.84957100  0.84746200  0.07315200  1
  O  O65  1  0.31872700  0.69114800  0.02459100  1
  O  O66  1  0.00412100  0.63460800  0.12324200  1
  O  O67  1  0.99258500  0.60035600  0.19985500  1
  O  O68  1  0.45144100  0.45052500  0.27371600  1
  O  O69  1  0.10447500  0.46611100  0.07383100  1
  O  O70  1  0.69951200  0.67797400  0.15523600  1
  O  O71  1  0.29878100  0.29747200  0.34956500  1
  O  O72  1  0.48972500  0.60044700  0.07625400  1
  O  O73  1  0.78856800  0.52444800  0.04802300  1
  O  O74  1  0.91771100  0.28734000  0.22274400  1
  O  O75  1  0.08181900  0.34647300  0.15089300  1
  O  O76  1  0.60165800  0.24019200  0.32405200  1
  O  O77  1  0.37977900  0.38232600  0.12669500  1
  O  O78  1  0.56398600  0.20039000  0.39991800  1
  O  O79  1  0.05387900  0.05472100  0.47364400  1
  O  O80  1  0.61207500  0.38020600  0.20095400  1
  O  O81  1  0.82165000  0.07460300  0.14694000  1
  O  O82  1  0.71112100  0.07299100  0.27503400  1
  O  O83  1  0.16253900  0.16500200  0.05362000  1
  O  O84  1  0.94572500  0.19965000  0.40012700  1
  O  O85  1  0.52466400  0.27923900  0.05241100  1
  O  O86  1  0.09134100  0.20119600  0.27522900  1
  O  O87  1  0.49829100  0.12537500  0.12767800  1
  O  O88  1  0.39222800  0.12990400  0.24915200  1
  O  O89  1  0.51957200  0.88890600  0.42262700  1
  O  O90  1  0.13237500  0.01398000  0.12399800  1
  O  O91  1  0.66992800  0.93533900  0.34957200  1
  O  O92  1  0.20250800  0.83499600  0.52423500  1
  O  O93  1  0.98027800  0.98000200  0.32656300  1
  O  O94  1  0.19137700  0.79951300  0.60045300  1
  O  O95  1  0.65096200  0.65036600  0.67370900  1
  O  O96  1  0.19812100  0.94907800  0.40078500  1
  O  O97  1  0.41856600  0.66720900  0.34703500  1
  O  O98  1  0.26673100  0.89178300  0.17792400  1
  O  O99  1  0.31529100  0.67237500  0.47487500  1
  O  O100  1  0.74427800  0.73271300  0.24306900  1
  O  O101  1  0.90295900  0.88612500  0.55637900  1
  O  O102  1  0.58896100  0.96909300  0.07237200  1
  O  O103  1  0.12445500  0.87618300  0.25336900  1
  O  O104  1  0.68689900  0.80009600  0.47546300  1
  O  O105  1  0.59627800  0.97320800  0.19952500  1
  O  O106  1  0.09814400  0.71970100  0.32790100  1
  O  O107  1  0.11684600  0.48749800  0.62281700  1
  O  O108  1  0.98516500  0.72079800  0.45008500  1
  O  O109  1  0.72587200  0.61190900  0.32479800  1
  O  O110  1  0.27943300  0.54400000  0.55114400  1
  O  O111  1  0.80153400  0.44023400  0.72426500  1
  O  O112  1  0.57732200  0.57793200  0.52645500  1
  O  O113  1  0.76354700  0.40179700  0.80046500  1
  O  O114  1  0.24981000  0.25172800  0.87446200  1
  O  O115  1  0.81582300  0.58208900  0.60130300  1
  O  O116  1  0.01984100  0.26843600  0.54726100  1
  O  O117  1  0.91097100  0.27294000  0.67514900  1
  O  O118  1  0.86838800  0.49740200  0.37736000  1
  O  O119  1  0.35196900  0.35186900  0.45026200  1
  O  O120  1  0.14588900  0.40124800  0.80015000  1
  O  O121  1  0.49934500  0.49735300  0.74949600  1
  O  O122  1  0.72033300  0.47133300  0.45317300  1
  O  O123  1  0.19259400  0.56686000  0.27161500  1
  O  O124  1  0.29156400  0.40137700  0.67525600  1
  O  O125  1  0.20267800  0.56410800  0.40035000  1
  O  O126  1  0.69695400  0.31956300  0.52810000  1
  O  O127  1  0.59233700  0.32995000  0.64910200  1
  O  O128  1  0.71728400  0.08952300  0.82287500  1
  O  O129  1  0.32911600  0.21600200  0.52570000  1
  O  O130  1  0.87005500  0.13513700  0.74955000  1
  O  O131  1  0.40228700  0.04056300  0.92404300  1
  O  O132  1  0.18025300  0.17984300  0.72648400  1
  O  O133  1  0.37740900  0.00343000  0.99987300  1
  O  O134  1  0.39727900  0.14915200  0.80002600  1
  O  O135  1  0.46856400  0.08934800  0.57810600  1
  O  O136  1  0.61816900  0.86808600  0.74697300  1
  O  O137  1  0.51590000  0.87296800  0.87519100  1
  O  O138  1  0.94411600  0.93315500  0.64356600  1
  O  O139  1  0.32445400  0.07586400  0.65336700  1
  O  O140  1  0.78857100  0.16731200  0.47309300  1
  O  O141  1  0.89008400  0.00095300  0.87558300  1
  O  O142  1  0.79646700  0.17346500  0.59995200  1
  O  O143  1  0.29770700  0.91921600  0.72777000  1
  O  O144  1  0.18411900  0.91792200  0.85041100  1
  O  O145  1  0.92566100  0.81161400  0.72486800  1
  O  O146  1  0.47459400  0.73492700  0.94978700  1
  O  O147  1  0.78255400  0.78016200  0.92592800  1
  O  O148  1  0.00109400  0.73191600  0.99939500  1
  O  O149  1  0.06829900  0.69751200  0.77765700  1
  O  O150  1  0.21524900  0.45612600  0.94756700  1
  O  O151  1  0.55739200  0.55255900  0.84958700  1
  O  O152  1  0.92008600  0.67044300  0.85393400  1
  O  O153  1  0.39230900  0.76640200  0.67180100  1
  O  O154  1  0.40291300  0.76325700  0.80022700  1
  O  O155  1  0.89776000  0.52339400  0.92828800  1
  O  O156  1  0.52903300  0.40974600  0.92730100  1
  O  O157  1  0.67245100  0.28293900  0.97837100  1
  O  O158  1  0.98369200  0.36707000  0.87355300  1
  O  O159  1  0.99284600  0.36197500  0.00010900  1
