# generated using pymatgen
data_BBr
_symmetry_space_group_name_H-M   'P 1'
_cell_length_a   9.94469200
_cell_length_b   10.01771297
_cell_length_c   10.09141796
_cell_angle_alpha   87.29719436
_cell_angle_beta   86.54771398
_cell_angle_gamma   85.73712194
_symmetry_Int_Tables_number   1
_chemical_formula_structural   BBr
_chemical_formula_sum   'B18 Br18'
_cell_volume   999.81717209
_cell_formula_units_Z   18
loop_
 _symmetry_equiv_pos_site_id
 _symmetry_equiv_pos_as_xyz
  1  'x, y, z'
loop_
 _atom_site_type_symbol
 _atom_site_label
 _atom_site_symmetry_multiplicity
 _atom_site_fract_x
 _atom_site_fract_y
 _atom_site_fract_z
 _atom_site_occupancy
  B  B0  1  0.87124400  0.73461000  0.74162800  1
  B  B1  1  0.79976000  0.78941100  0.59153700  1
  B  B2  1  0.79048900  0.59061500  0.79879200  1
  B  B3  1  0.74016800  0.87144400  0.73625400  1
  B  B4  1  0.73360300  0.74305300  0.86947300  1
  B  B5  1  0.76067300  0.62342000  0.63036200  1
  B  B6  1  0.62280600  0.63270200  0.75923800  1
  B  B7  1  0.62881900  0.76068100  0.62449100  1
  B  B8  1  0.58688700  0.80322600  0.78965000  1
  B  B9  1  0.40728300  0.20224900  0.21048700  1
  B  B10  1  0.36795700  0.23984800  0.37640800  1
  B  B11  1  0.36845400  0.37117700  0.24219700  1
  B  B12  1  0.23793100  0.37692800  0.37684000  1
  B  B13  1  0.25783700  0.12993300  0.26566300  1
  B  B14  1  0.25965000  0.26253300  0.13413400  1
  B  B15  1  0.19740200  0.41103700  0.21101500  1
  B  B16  1  0.19687700  0.21054300  0.41165400  1
  B  B17  1  0.12281100  0.26119400  0.26135800  1
  Br  Br18  1  0.88228100  0.86306000  0.43357800  1
  Br  Br19  1  0.93569100  0.23706400  0.23577600  1
  Br  Br20  1  0.86526200  0.43089800  0.88139500  1
  Br  Br21  1  0.79459400  0.48626000  0.50344400  1
  Br  Br22  1  0.76461400  0.05836600  0.75563800  1
  Br  Br23  1  0.74967600  0.76835000  0.05583000  1
  Br  Br24  1  0.56970700  0.11902300  0.13398200  1
  Br  Br25  1  0.50185200  0.79503300  0.48903400  1
  Br  Br26  1  0.48649200  0.50777300  0.79479200  1
  Br  Br27  1  0.50054100  0.50070900  0.20268000  1
  Br  Br28  1  0.49779700  0.20467500  0.51013200  1
  Br  Br29  1  0.42570100  0.88839100  0.86389400  1
  Br  Br30  1  0.24155000  0.24437800  0.94615800  1
  Br  Br31  1  0.23679300  0.94189400  0.24431800  1
  Br  Br32  1  0.20725300  0.51084500  0.50748700  1
  Br  Br33  1  0.05931600  0.75255000  0.76857400  1
  Br  Br34  1  0.11501300  0.13601200  0.56974100  1
  Br  Br35  1  0.11601600  0.57081600  0.13456600  1
