# generated using pymatgen
data_Al2O3
_symmetry_space_group_name_H-M   'P 1'
_cell_length_a   5.65478400
_cell_length_b   5.65822568
_cell_length_c   13.64153700
_cell_angle_alpha   92.17137893
_cell_angle_beta   89.35410379
_cell_angle_gamma   119.64463075
_symmetry_Int_Tables_number   1
_chemical_formula_structural   Al2O3
_chemical_formula_sum   'Al16 O24'
_cell_volume   379.05854173
_cell_formula_units_Z   8
loop_
 _symmetry_equiv_pos_site_id
 _symmetry_equiv_pos_as_xyz
  1  'x, y, z'
loop_
 _atom_site_type_symbol
 _atom_site_label
 _atom_site_symmetry_multiplicity
 _atom_site_fract_x
 _atom_site_fract_y
 _atom_site_fract_z
 _atom_site_occupancy
  Al  Al0  1  0.81677700  0.15400700  0.96169600  1
  Al  Al1  1  0.31286200  0.13657800  0.83426300  1
  Al  Al2  1  0.12280900  0.79185900  0.66045900  1
  Al  Al3  1  0.30366700  0.64236200  0.83916500  1
  Al  Al4  1  0.81467300  0.63107700  0.83382800  1
  Al  Al5  1  0.65409300  0.84405900  0.28710300  1
  Al  Al6  1  0.94229800  0.93950600  0.48983300  1
  Al  Al7  1  0.31648700  0.16361200  0.33396600  1
  Al  Al8  1  0.14511500  0.32060300  0.64377700  1
  Al  Al9  1  0.64207000  0.81761300  0.66692300  1
  Al  Al10  1  0.49936500  0.02329900  0.49546300  1
  Al  Al11  1  0.66578100  0.32779300  0.17335300  1
  Al  Al12  1  0.97896400  0.46540500  0.38024100  1
  Al  Al13  1  0.13439200  0.32406000  0.17208800  1
  Al  Al14  1  0.14571700  0.82169700  0.06265100  1
  Al  Al15  1  0.49222000  0.50708100  0.01350900  1
  O  O16  1  0.63594600  0.32163300  0.91053600  1
  O  O17  1  0.00252300  0.49677400  0.75157900  1
  O  O18  1  0.16614100  0.32083300  0.91309200  1
  O  O19  1  0.14163900  0.81502500  0.91392500  1
  O  O20  1  0.46886900  0.48160500  0.75839800  1
  O  O21  1  0.31833500  0.65657200  0.59743200  1
  O  O22  1  0.63569000  0.83621900  0.41971700  1
  O  O23  1  0.44572000  0.94377000  0.75770500  1
  O  O24  1  0.81586700  0.68003000  0.59097900  1
  O  O25  1  0.63614000  0.79225500  0.91625300  1
  O  O26  1  0.80343400  0.11914500  0.58950500  1
  O  O27  1  0.97892600  0.95409400  0.75563800  1
  O  O28  1  0.00481200  0.01965200  0.24953400  1
  O  O29  1  0.15764200  0.82840800  0.42236300  1
  O  O30  1  0.48760000  0.02404200  0.24933500  1
  O  O31  1  0.12753500  0.27401700  0.42335400  1
  O  O32  1  0.33069200  0.18397000  0.08403200  1
  O  O33  1  0.27790500  0.10837700  0.58917400  1
  O  O34  1  0.47314700  0.47933800  0.24848700  1
  O  O35  1  0.63079100  0.30927000  0.41850700  1
  O  O36  1  0.82373500  0.17219500  0.08785900  1
  O  O37  1  0.79702400  0.62664100  0.08373700  1
  O  O38  1  0.97831900  0.47998600  0.24931300  1
  O  O39  1  0.30174600  0.62927000  0.08249100  1
