# generated using pymatgen
data_K2OsO5
_symmetry_space_group_name_H-M   'P 1'
_cell_length_a   8.40595300
_cell_length_b   10.94497237
_cell_length_c   11.02304518
_cell_angle_alpha   119.42116397
_cell_angle_beta   91.50684953
_cell_angle_gamma   90.80616376
_symmetry_Int_Tables_number   1
_chemical_formula_structural   K2OsO5
_chemical_formula_sum   'K12 Os6 O30'
_cell_volume   882.62988941
_cell_formula_units_Z   6
loop_
 _symmetry_equiv_pos_site_id
 _symmetry_equiv_pos_as_xyz
  1  'x, y, z'
loop_
 _atom_site_type_symbol
 _atom_site_label
 _atom_site_symmetry_multiplicity
 _atom_site_fract_x
 _atom_site_fract_y
 _atom_site_fract_z
 _atom_site_occupancy
  K  K0  1  0.99621900  0.03418900  0.69816200  1
  K  K1  1  0.01068800  0.65868800  0.95677000  1
  K  K2  1  0.73769100  0.34945100  0.68284200  1
  K  K3  1  0.25680900  0.31838000  0.65677400  1
  K  K4  1  0.26832600  0.98765600  0.99474300  1
  K  K5  1  0.44265100  0.66645800  0.61974600  1
  K  K6  1  0.99720300  0.28031300  0.31072100  1
  K  K7  1  0.74271700  0.65599200  0.32125100  1
  K  K8  1  0.23498500  0.65061000  0.32983700  1
  K  K9  1  0.48703900  0.37218200  0.02864600  1
  K  K10  1  0.55487500  0.96602200  0.34222400  1
  K  K11  1  0.73658800  0.98903400  0.98518000  1
  Os  Os12  1  0.50056300  0.03119900  0.69690400  1
  Os  Os13  1  0.50627400  0.67453400  0.97173100  1
  Os  Os14  1  0.00371500  0.66784100  0.63555800  1
  Os  Os15  1  0.49637500  0.30473300  0.32918900  1
  Os  Os16  1  0.99245400  0.37582200  0.02051800  1
  Os  Os17  1  0.00548300  0.95442600  0.32605200  1
  O  O18  1  0.00054200  0.20270300  0.99871200  1
  O  O19  1  0.68544200  0.11074600  0.78659900  1
  O  O20  1  0.32296600  0.11966900  0.77664700  1
  O  O21  1  0.00462500  0.31361400  0.83322000  1
  O  O22  1  0.49324800  0.48331200  0.86707500  1
  O  O23  1  0.32597100  0.68025000  0.88253900  1
  O  O24  1  0.68899700  0.68233900  0.89811300  1
  O  O25  1  0.50976800  0.13218500  0.60477400  1
  O  O26  1  0.01084700  0.80351200  0.81815100  1
  O  O27  1  0.96404100  0.53799800  0.68859500  1
  O  O28  1  0.04631100  0.13784700  0.45395400  1
  O  O29  1  0.49267100  0.39928400  0.51967300  1
  O  O30  1  0.48891300  0.93425700  0.79349900  1
  O  O31  1  0.81672800  0.67796100  0.56657800  1
  O  O32  1  0.67489600  0.22319900  0.34165000  1
  O  O33  1  0.31296300  0.21522700  0.31490900  1
  O  O34  1  0.96628900  0.99402600  0.18835000  1
  O  O35  1  0.12829600  0.78757300  0.60487000  1
  O  O36  1  0.11934400  0.53299900  0.49969400  1
  O  O37  1  0.49685000  0.86887800  0.53465400  1
  O  O38  1  0.49526200  0.47038400  0.32869000  1
  O  O39  1  0.51007400  0.21091000  0.13910900  1
  O  O40  1  0.85369400  0.95591500  0.44118800  1
  O  O41  1  0.97824200  0.45590000  0.21010200  1
  O  O42  1  0.94168500  0.77053300  0.21533400  1
  O  O43  1  0.20429700  0.90687800  0.33690400  1
  O  O44  1  0.17502800  0.47523500  0.04895900  1
  O  O45  1  0.80531600  0.44916500  0.01590400  1
  O  O46  1  0.51083900  0.66447700  0.13020000  1
  O  O47  1  0.50520200  0.86669400  0.07370600  1
