# generated using pymatgen
data_Ce2Nd2O7
_symmetry_space_group_name_H-M   'P 1'
_cell_length_a   3.80789900
_cell_length_b   7.96551300
_cell_length_c   11.22772100
_cell_angle_alpha   90.00000000
_cell_angle_beta   90.00000000
_cell_angle_gamma   90.00000000
_symmetry_Int_Tables_number   1
_chemical_formula_structural   Ce2Nd2O7
_chemical_formula_sum   'Ce4 Nd4 O14'
_cell_volume   340.55776240
_cell_formula_units_Z   2
loop_
 _symmetry_equiv_pos_site_id
 _symmetry_equiv_pos_as_xyz
  1  'x, y, z'
loop_
 _atom_site_type_symbol
 _atom_site_label
 _atom_site_symmetry_multiplicity
 _atom_site_fract_x
 _atom_site_fract_y
 _atom_site_fract_z
 _atom_site_occupancy
  Ce  Ce0  1  0.50000000  0.75000000  0.75075500  1
  Ce  Ce1  1  0.50000000  0.25000000  0.24924500  1
  Ce  Ce2  1  0.00000000  0.00000000  0.00000000  1
  Ce  Ce3  1  0.00000000  0.50000000  0.00000000  1
  Nd  Nd4  1  0.00000000  0.00000000  0.50000000  1
  Nd  Nd5  1  0.50000000  0.25000000  0.77220200  1
  Nd  Nd6  1  0.00000000  0.50000000  0.50000000  1
  Nd  Nd7  1  0.50000000  0.75000000  0.22779800  1
  O  O8  1  0.00000000  0.75000000  0.61859500  1
  O  O9  1  0.50000000  0.95885000  0.37161600  1
  O  O10  1  0.00000000  0.25000000  0.13388500  1
  O  O11  1  0.50000000  0.01558200  0.11881900  1
  O  O12  1  0.50000000  0.98441800  0.88118100  1
  O  O13  1  0.50000000  0.51558200  0.88118100  1
  O  O14  1  0.00000000  0.75000000  0.86611500  1
  O  O15  1  0.00000000  0.25000000  0.88434400  1
  O  O16  1  0.50000000  0.04115000  0.62838400  1
  O  O17  1  0.50000000  0.45885000  0.62838400  1
  O  O18  1  0.50000000  0.54115000  0.37161600  1
  O  O19  1  0.00000000  0.25000000  0.38140500  1
  O  O20  1  0.00000000  0.75000000  0.11565600  1
  O  O21  1  0.50000000  0.48441800  0.11881900  1
