# generated using pymatgen
data_CaNb2Ga2(CuO4)3
_symmetry_space_group_name_H-M   'P 1'
_cell_length_a   7.56292600
_cell_length_b   7.56292600
_cell_length_c   7.56292600
_cell_angle_alpha   90.00000000
_cell_angle_beta   90.00000000
_cell_angle_gamma   90.00000000
_symmetry_Int_Tables_number   1
_chemical_formula_structural   CaNb2Ga2(CuO4)3
_chemical_formula_sum   'Ca2 Nb4 Ga4 Cu6 O24'
_cell_volume   432.58310450
_cell_formula_units_Z   2
loop_
 _symmetry_equiv_pos_site_id
 _symmetry_equiv_pos_as_xyz
  1  'x, y, z'
loop_
 _atom_site_type_symbol
 _atom_site_label
 _atom_site_symmetry_multiplicity
 _atom_site_fract_x
 _atom_site_fract_y
 _atom_site_fract_z
 _atom_site_occupancy
  Ca  Ca0  1  0.00000000  0.00000000  0.00000000  1
  Ca  Ca1  1  0.50000000  0.50000000  0.50000000  1
  Nb  Nb2  1  0.25000000  0.75000000  0.25000000  1
  Nb  Nb3  1  0.75000000  0.75000000  0.75000000  1
  Nb  Nb4  1  0.25000000  0.25000000  0.75000000  1
  Nb  Nb5  1  0.75000000  0.25000000  0.25000000  1
  Ga  Ga6  1  0.75000000  0.75000000  0.25000000  1
  Ga  Ga7  1  0.25000000  0.75000000  0.75000000  1
  Ga  Ga8  1  0.75000000  0.25000000  0.75000000  1
  Ga  Ga9  1  0.25000000  0.25000000  0.25000000  1
  Cu  Cu10  1  0.50000000  0.00000000  0.00000000  1
  Cu  Cu11  1  0.00000000  0.00000000  0.50000000  1
  Cu  Cu12  1  0.50000000  0.50000000  0.00000000  1
  Cu  Cu13  1  0.00000000  0.50000000  0.50000000  1
  Cu  Cu14  1  0.00000000  0.50000000  0.00000000  1
  Cu  Cu15  1  0.50000000  0.00000000  0.50000000  1
  O  O16  1  0.69609400  0.99912000  0.17501500  1
  O  O17  1  0.32498500  0.80390600  0.50088000  1
  O  O18  1  0.67501500  0.80390600  0.49912000  1
  O  O19  1  0.99912000  0.82498500  0.30390600  1
  O  O20  1  0.69609400  0.00088000  0.82498500  1
  O  O21  1  0.49912000  0.67501500  0.80390600  1
  O  O22  1  0.00088000  0.82498500  0.69609400  1
  O  O23  1  0.80390600  0.49912000  0.67501500  1
  O  O24  1  0.50088000  0.67501500  0.19609400  1
  O  O25  1  0.82498500  0.69609400  0.00088000  1
  O  O26  1  0.19609400  0.50088000  0.67501500  1
  O  O27  1  0.17501500  0.69609400  0.99912000  1
  O  O28  1  0.82498500  0.30390600  0.99912000  1
  O  O29  1  0.80390600  0.50088000  0.32498500  1
  O  O30  1  0.17501500  0.30390600  0.00088000  1
  O  O31  1  0.50088000  0.32498500  0.80390600  1
  O  O32  1  0.19609400  0.49912000  0.32498500  1
  O  O33  1  0.00088000  0.17501500  0.30390600  1
  O  O34  1  0.49912000  0.32498500  0.19609400  1
  O  O35  1  0.30390600  0.00088000  0.17501500  1
  O  O36  1  0.99912000  0.17501500  0.69609400  1
  O  O37  1  0.32498500  0.19609400  0.49912000  1
  O  O38  1  0.67501500  0.19609400  0.50088000  1
  O  O39  1  0.30390600  0.99912000  0.82498500  1
