# generated using pymatgen
data_KMg4Al9(SiO4)9
_symmetry_space_group_name_H-M   'P 1'
_cell_length_a   9.50690200
_cell_length_b   9.85865156
_cell_length_c   9.88681820
_cell_angle_alpha   60.34303834
_cell_angle_beta   89.98783015
_cell_angle_gamma   89.98076900
_symmetry_Int_Tables_number   1
_chemical_formula_structural   KMg4Al9(SiO4)9
_chemical_formula_sum   'K1 Mg4 Al9 Si9 O36'
_cell_volume   805.25708099
_cell_formula_units_Z   1
loop_
 _symmetry_equiv_pos_site_id
 _symmetry_equiv_pos_as_xyz
  1  'x, y, z'
loop_
 _atom_site_type_symbol
 _atom_site_label
 _atom_site_symmetry_multiplicity
 _atom_site_fract_x
 _atom_site_fract_y
 _atom_site_fract_z
 _atom_site_occupancy
  K  K0  1  0.83539200  0.99637200  0.00913200  1
  Mg  Mg1  1  0.75091600  0.66676100  0.66798000  1
  Mg  Mg2  1  0.24965900  0.66655400  0.66800300  1
  Mg  Mg3  1  0.75155700  0.33486600  0.32233100  1
  Mg  Mg4  1  0.24954700  0.33463000  0.32317700  1
  Al  Al5  1  0.74995900  0.49748000  0.00191700  1
  Al  Al6  1  0.74835200  0.00123000  0.49650900  1
  Al  Al7  1  0.24951800  0.50193200  0.49686100  1
  Al  Al8  1  0.75092000  0.50177000  0.49665000  1
  Al  Al9  1  0.25221400  0.00096800  0.49781600  1
  Al  Al10  1  0.00040500  0.63045000  0.10687900  1
  Al  Al11  1  0.00057800  0.11610600  0.26286800  1
  Al  Al12  1  0.25068800  0.49720300  0.00219600  1
  Al  Al13  1  0.50014400  0.25766900  0.10849500  1
  Si  Si14  1  0.50015000  0.73252400  0.89506900  1
  Si  Si15  1  0.99932700  0.89662700  0.72979400  1
  Si  Si16  1  0.99933200  0.37856400  0.88643700  1
  Si  Si17  1  0.50046500  0.37318000  0.73158500  1
  Si  Si18  1  0.50046900  0.88415900  0.37899000  1
  Si  Si19  1  0.99988900  0.26883100  0.62174300  1
  Si  Si20  1  0.99883800  0.73566200  0.37856800  1
  Si  Si21  1  0.50035000  0.10287100  0.63288400  1
  Si  Si22  1  0.50013800  0.62432900  0.26516800  1
  O  O23  1  0.99355100  0.78959600  0.91500900  1
  O  O24  1  0.50196500  0.92239600  0.78006600  1
  O  O25  1  0.35820600  0.65626800  0.86312800  1
  O  O26  1  0.64194700  0.65618200  0.86324700  1
  O  O27  1  0.14157300  0.48714500  0.85722200  1
  O  O28  1  0.85834800  0.48935000  0.85572800  1
  O  O29  1  0.85832200  0.86629400  0.65023200  1
  O  O30  1  0.14160400  0.86612200  0.65187000  1
  O  O31  1  0.50344000  0.30267000  0.91417000  1
  O  O32  1  0.99607600  0.30605400  0.76668800  1
  O  O33  1  0.35956100  0.85477500  0.48991200  1
  O  O34  1  0.64073700  0.85418000  0.49064200  1
  O  O35  1  0.35958500  0.48371400  0.64957100  1
  O  O36  1  0.64068600  0.48385700  0.64888000  1
  O  O37  1  0.14012300  0.65146300  0.48939900  1
  O  O38  1  0.85957300  0.64981100  0.49230500  1
  O  O39  1  0.50194400  0.22926200  0.69294700  1
  O  O40  1  0.99333600  0.92027400  0.30971100  1
  O  O41  1  0.99611600  0.08016700  0.69358300  1
  O  O42  1  0.50193400  0.76362700  0.30945800  1
  O  O43  1  0.14322500  0.34475700  0.51830600  1
  O  O44  1  0.85691600  0.34494200  0.51732400  1
  O  O45  1  0.35829300  0.51781700  0.34354100  1
  O  O46  1  0.64199400  0.51779100  0.34344900  1
  O  O47  1  0.35973400  0.13093200  0.52711600  1
  O  O48  1  0.64106600  0.13053800  0.52729600  1
  O  O49  1  0.99296600  0.70127200  0.23633300  1
  O  O50  1  0.50192100  0.69888800  0.07598500  1
  O  O51  1  0.85071600  0.14256300  0.35023800  1
  O  O52  1  0.14957700  0.14188900  0.35115400  1
  O  O53  1  0.14846600  0.51592800  0.13738100  1
  O  O54  1  0.85144000  0.51660900  0.13711900  1
  O  O55  1  0.35467400  0.34721500  0.13758000  1
  O  O56  1  0.64626900  0.34686600  0.13703100  1
  O  O57  1  0.50365100  0.05762700  0.23641400  1
  O  O58  1  0.99335900  0.23041700  0.05891400  1
