# generated using pymatgen
data_Ca4Al11Si13(AgO16)3
_symmetry_space_group_name_H-M   'P 1'
_cell_length_a   12.20683800
_cell_length_b   12.22660348
_cell_length_c   12.85027258
_cell_angle_alpha   89.44972615
_cell_angle_beta   89.69447362
_cell_angle_gamma   89.66944136
_symmetry_Int_Tables_number   1
_chemical_formula_structural   Ca4Al11Si13(AgO16)3
_chemical_formula_sum   'Ca4 Al11 Si13 Ag3 O48'
_cell_volume   1917.73256739
_cell_formula_units_Z   1
loop_
 _symmetry_equiv_pos_site_id
 _symmetry_equiv_pos_as_xyz
  1  'x, y, z'
loop_
 _atom_site_type_symbol
 _atom_site_label
 _atom_site_symmetry_multiplicity
 _atom_site_fract_x
 _atom_site_fract_y
 _atom_site_fract_z
 _atom_site_occupancy
  Ca  Ca0  1  0.18362800  0.81731100  0.78039300  1
  Ca  Ca1  1  0.82099700  0.82328500  0.78379400  1
  Ca  Ca2  1  0.80869300  0.18664100  0.78849500  1
  Ca  Ca3  1  0.18512900  0.19210400  0.77453600  1
  Al  Al4  1  0.81419200  0.36667900  0.00367500  1
  Al  Al5  1  0.99918300  0.80530200  0.37399200  1
  Al  Al6  1  0.80798800  0.00473600  0.37203100  1
  Al  Al7  1  0.00316800  0.19645600  0.61026600  1
  Al  Al8  1  0.19561000  0.99791400  0.60790800  1
  Al  Al9  1  0.00279000  0.80573500  0.61159400  1
  Al  Al10  1  0.81021600  0.00771200  0.61500000  1
  Al  Al11  1  0.00144100  0.36524100  0.83019100  1
  Al  Al12  1  0.00056600  0.63962300  0.83831600  1
  Al  Al13  1  0.36080500  0.99917700  0.83348000  1
  Al  Al14  1  0.63353800  0.99898400  0.83491800  1
  Si  Si15  1  0.18677800  0.36831500  0.00458100  1
  Si  Si16  1  0.36303700  0.18309300  0.00254900  1
  Si  Si17  1  0.81476800  0.63286400  0.00831900  1
  Si  Si18  1  0.00323900  0.36661100  0.18115800  1
  Si  Si19  1  0.00199100  0.62249100  0.18030400  1
  Si  Si20  1  0.36511500  0.99942600  0.17986200  1
  Si  Si21  1  0.62099200  0.00073600  0.18248000  1
  Si  Si22  1  0.00325300  0.18866600  0.36665300  1
  Si  Si23  1  0.18801200  0.00171100  0.36926600  1
  Si  Si24  1  0.19008400  0.62610600  0.00355700  1
  Si  Si25  1  0.36737600  0.81231700  0.00904600  1
  Si  Si26  1  0.62298100  0.18654400  0.00323200  1
  Si  Si27  1  0.62930300  0.81430000  0.01043300  1
  Ag  Ag28  1  0.80692600  0.80645300  0.20964400  1
  Ag  Ag29  1  0.19098400  0.79573600  0.21130100  1
  Ag  Ag30  1  0.79726000  0.19612300  0.19964900  1
  O  O31  1  0.49242400  0.21123500  0.99097500  1
  O  O32  1  0.30190800  0.69684600  0.02345400  1
  O  O33  1  0.69097600  0.29611100  0.02139700  1
  O  O34  1  0.78766000  0.50640600  0.99732800  1
  O  O35  1  0.70082000  0.70302500  0.02878100  1
  O  O36  1  0.11189100  0.35099800  0.10781800  1
  O  O37  1  0.34207300  0.10224800  0.10246200  1
  O  O38  1  0.11178100  0.64487300  0.10616500  1
  O  O39  1  0.64154000  0.10635000  0.10542300  1
  O  O40  1  0.33986000  0.88421400  0.11495400  1
  O  O41  1  0.89374300  0.33553300  0.11593500  1
  O  O42  1  0.65027100  0.88903200  0.11436900  1
  O  O43  1  0.89134100  0.65620500  0.11252700  1
  O  O44  1  0.99747900  0.49527800  0.21550900  1
  O  O45  1  0.49217700  0.99564100  0.21591300  1
  O  O46  1  0.01440500  0.29137200  0.28317500  1
  O  O47  1  0.28584700  0.00295700  0.27871300  1
  O  O48  1  0.70072000  0.01048400  0.27785800  1
  O  O49  1  0.01311100  0.70488200  0.27438200  1
  O  O50  1  0.11129600  0.10978900  0.34809400  1
  O  O51  1  0.11908800  0.88910100  0.34784000  1
  O  O52  1  0.89130200  0.12183400  0.33695900  1
  O  O53  1  0.88464700  0.88642100  0.34116600  1
  O  O54  1  0.99973400  0.24007400  0.48141800  1
  O  O55  1  0.24731300  0.00308300  0.48099700  1
  O  O56  1  0.75263900  0.01217400  0.49460500  1
  O  O57  1  0.99688100  0.74261000  0.49388200  1
  O  O58  1  0.12089900  0.11681600  0.63263800  1
  O  O59  1  0.12753700  0.87457000  0.62907100  1
  O  O60  1  0.88270400  0.12800900  0.64572200  1
  O  O61  1  0.88988300  0.89029200  0.64076000  1
  O  O62  1  0.02094700  0.28201300  0.72134200  1
  O  O63  1  0.26910500  0.99518700  0.73039700  1
  O  O64  1  0.73393700  0.99991800  0.73787900  1
  O  O65  1  0.00306700  0.73837700  0.73939300  1
  O  O66  1  0.49733300  0.99671700  0.81385100  1
  O  O67  1  0.99784700  0.50359800  0.81998300  1
  O  O68  1  0.12888800  0.67709900  0.90136800  1
  O  O69  1  0.67165500  0.12208700  0.90128400  1
  O  O70  1  0.67532400  0.87649300  0.90631400  1
  O  O71  1  0.87880100  0.68770700  0.90760200  1
  O  O72  1  0.12651800  0.32435100  0.89980900  1
  O  O73  1  0.31573600  0.12306100  0.89818700  1
  O  O74  1  0.32059400  0.87586900  0.90592000  1
  O  O75  1  0.88097400  0.31356700  0.89247300  1
  O  O76  1  0.22212000  0.49755700  0.99364900  1
  O  O77  1  0.29955700  0.29842900  0.01895600  1
  O  O78  1  0.49860400  0.78611400  0.00368200  1
