# generated using pymatgen
data_Na3Sr4Nd3Ti10O30
_symmetry_space_group_name_H-M   'P 1'
_cell_length_a   5.51325300
_cell_length_b   5.51670736
_cell_length_c   19.89413166
_cell_angle_alpha   97.91678863
_cell_angle_beta   97.87624857
_cell_angle_gamma   89.52653417
_symmetry_Int_Tables_number   1
_chemical_formula_structural   Na3Sr4Nd3Ti10O30
_chemical_formula_sum   'Na3 Sr4 Nd3 Ti10 O30'
_cell_volume   593.62472491
_cell_formula_units_Z   1
loop_
 _symmetry_equiv_pos_site_id
 _symmetry_equiv_pos_as_xyz
  1  'x, y, z'
loop_
 _atom_site_type_symbol
 _atom_site_label
 _atom_site_symmetry_multiplicity
 _atom_site_fract_x
 _atom_site_fract_y
 _atom_site_fract_z
 _atom_site_occupancy
  Na  Na0  1  0.85837300  0.35051600  0.69953800  1
  Na  Na1  1  0.25153600  0.75663200  0.50062100  1
  Na  Na2  1  0.64420700  0.14873300  0.30288700  1
  Sr  Sr3  1  0.45167900  0.95446200  0.89970300  1
  Sr  Sr4  1  0.95234500  0.45176000  0.89747200  1
  Sr  Sr5  1  0.04982200  0.54827400  0.10027500  1
  Sr  Sr6  1  0.54934400  0.05094400  0.10084700  1
  Nd  Nd7  1  0.34361500  0.84224600  0.69719900  1
  Nd  Nd8  1  0.73770100  0.24172500  0.49772800  1
  Nd  Nd9  1  0.13883900  0.63834100  0.30008200  1
  Ti  Ti10  1  0.50173700  0.50366600  0.99975400  1
  Ti  Ti11  1  0.39997500  0.40318500  0.79661500  1
  Ti  Ti12  1  0.30028700  0.29497300  0.59892200  1
  Ti  Ti13  1  0.79766400  0.79620400  0.59804200  1
  Ti  Ti14  1  0.69412000  0.69314300  0.40064000  1
  Ti  Ti15  1  0.90103700  0.89961900  0.79551400  1
  Ti  Ti16  1  0.18958100  0.19542800  0.40067300  1
  Ti  Ti17  1  0.09766600  0.09598400  0.20229500  1
  Ti  Ti18  1  0.59710600  0.59803300  0.20269400  1
  Ti  Ti19  1  0.00085200  0.00297500  0.99893400  1
  O  O20  1  0.23087100  0.72976000  0.99221000  1
  O  O21  1  0.47172900  0.42643100  0.89901000  1
  O  O22  1  0.60854000  0.10765700  0.78477700  1
  O  O23  1  0.92949200  0.97089800  0.89929500  1
  O  O24  1  0.89132300  0.80819100  0.69811200  1
  O  O25  1  0.73531000  0.76666300  0.00103500  1
  O  O26  1  0.99894900  0.50096000  0.58156700  1
  O  O27  1  0.66708900  0.62634000  0.79758900  1
  O  O28  1  0.30800700  0.39477200  0.69828100  1
  O  O29  1  0.29622500  0.21176000  0.50036200  1
  O  O30  1  0.12757800  0.16519100  0.79711000  1
  O  O31  1  0.40004400  0.90231400  0.38466200  1
  O  O32  1  0.09336500  0.00932500  0.60280300  1
  O  O33  1  0.71496100  0.80293300  0.50039600  1
  O  O34  1  0.69618100  0.62286600  0.30266500  1
  O  O35  1  0.50978500  0.59155400  0.60091400  1
  O  O36  1  0.17928200  0.67920200  0.80872200  1
  O  O37  1  0.82213800  0.32251100  0.19198800  1
  O  O38  1  0.49269200  0.41461900  0.40373200  1
  O  O39  1  0.12236800  0.19840500  0.30261900  1
  O  O40  1  0.90898600  0.99621700  0.40260400  1
  O  O41  1  0.59162700  0.09324300  0.61388900  1
  O  O42  1  0.89122300  0.81754200  0.20504800  1
  O  O43  1  0.53366800  0.57546800  0.10227500  1
  O  O44  1  0.31843400  0.39022500  0.20460400  1
  O  O45  1  0.99244600  0.49473500  0.41500600  1
  O  O46  1  0.26816300  0.23515300  0.00178400  1
  O  O47  1  0.07525800  0.03141500  0.10245500  1
  O  O48  1  0.38272900  0.88262400  0.21510300  1
  O  O49  1  0.77012000  0.26910800  0.00829700  1
