# generated using pymatgen
data_MgTiNb2(PbO3)4
_symmetry_space_group_name_H-M   'P 1'
_cell_length_a   8.05959700
_cell_length_b   8.30192365
_cell_length_c   9.98018349
_cell_angle_alpha   113.70804290
_cell_angle_beta   113.74510869
_cell_angle_gamma   89.85212816
_symmetry_Int_Tables_number   1
_chemical_formula_structural   MgTiNb2(PbO3)4
_chemical_formula_sum   'Mg2 Ti2 Nb4 Pb8 O24'
_cell_volume   549.45469328
_cell_formula_units_Z   2
loop_
 _symmetry_equiv_pos_site_id
 _symmetry_equiv_pos_as_xyz
  1  'x, y, z'
loop_
 _atom_site_type_symbol
 _atom_site_label
 _atom_site_symmetry_multiplicity
 _atom_site_fract_x
 _atom_site_fract_y
 _atom_site_fract_z
 _atom_site_occupancy
  Mg  Mg0  1  0.38865600  0.88964600  0.26200600  1
  Mg  Mg1  1  0.13657100  0.13839900  0.75828900  1
  Ti  Ti2  1  0.87926500  0.37571000  0.25218900  1
  Ti  Ti3  1  0.63125000  0.62774100  0.75704200  1
  Nb  Nb4  1  0.38254500  0.39161800  0.25834900  1
  Nb  Nb5  1  0.88575800  0.87849800  0.25676500  1
  Nb  Nb6  1  0.12997400  0.64378300  0.75408400  1
  Nb  Nb7  1  0.63767100  0.12818400  0.75995900  1
  Pb  Pb8  1  0.01849600  0.97479600  0.99822200  1
  Pb  Pb9  1  0.00037100  0.48040800  0.98075700  1
  Pb  Pb10  1  0.48338800  0.97579100  0.99539300  1
  Pb  Pb11  1  0.48577400  0.48241300  0.98120100  1
  Pb  Pb12  1  0.73834200  0.73218200  0.48556200  1
  Pb  Pb13  1  0.75341500  0.22158900  0.48791500  1
  Pb  Pb14  1  0.25152800  0.73463100  0.48997300  1
  Pb  Pb15  1  0.24128700  0.22094500  0.49003100  1
  O  O16  1  0.27320200  0.29197900  0.02766700  1
  O  O17  1  0.26532600  0.79026800  0.01128300  1
  O  O18  1  0.40847300  0.65592000  0.29400200  1
  O  O19  1  0.40346900  0.17298300  0.28387600  1
  O  O20  1  0.65365700  0.41788400  0.28261200  1
  O  O21  1  0.64934500  0.92069800  0.27099400  1
  O  O22  1  0.89210700  0.17816400  0.78414700  1
  O  O23  1  0.89163800  0.66116700  0.77316000  1
  O  O24  1  0.77383900  0.29507700  0.02908300  1
  O  O25  1  0.76898500  0.79052200  0.01741700  1
  O  O26  1  0.02014200  0.53747200  0.51689700  1
  O  O27  1  0.89637000  0.65808000  0.27379200  1
  O  O28  1  0.01271100  0.03912500  0.50579200  1
  O  O29  1  0.14957300  0.89803100  0.77395800  1
  O  O30  1  0.89412900  0.16744000  0.27087500  1
  O  O31  1  0.15116700  0.42041400  0.78172900  1
  O  O32  1  0.14644300  0.41819100  0.28140500  1
  O  O33  1  0.13715500  0.92134900  0.26887700  1
  O  O34  1  0.40805500  0.17829400  0.78374800  1
  O  O35  1  0.39962200  0.66023300  0.77257900  1
  O  O36  1  0.52738600  0.54333500  0.53242300  1
  O  O37  1  0.64585900  0.90813600  0.77358400  1
  O  O38  1  0.52294200  0.04214600  0.52841300  1
  O  O39  1  0.65091800  0.42115700  0.78354900  1
