# generated using pymatgen
data_Sr5Al11TlSi13O48
_symmetry_space_group_name_H-M   'P 1'
_cell_length_a   12.32323700
_cell_length_b   12.41869272
_cell_length_c   12.50276948
_cell_angle_alpha   90.57910810
_cell_angle_beta   90.13074762
_cell_angle_gamma   90.63957900
_symmetry_Int_Tables_number   1
_chemical_formula_structural   Sr5Al11TlSi13O48
_chemical_formula_sum   'Sr5 Al11 Tl1 Si13 O48'
_cell_volume   1913.18258172
_cell_formula_units_Z   1
loop_
 _symmetry_equiv_pos_site_id
 _symmetry_equiv_pos_as_xyz
  1  'x, y, z'
loop_
 _atom_site_type_symbol
 _atom_site_label
 _atom_site_symmetry_multiplicity
 _atom_site_fract_x
 _atom_site_fract_y
 _atom_site_fract_z
 _atom_site_occupancy
  Sr  Sr0  1  0.21813200  0.76929000  0.77700000  1
  Sr  Sr1  1  0.20843600  0.20882600  0.22730900  1
  Sr  Sr2  1  0.79627600  0.20301300  0.23558700  1
  Sr  Sr3  1  0.20588800  0.79456700  0.23744100  1
  Sr  Sr4  1  0.85305000  0.86062900  0.13064200  1
  Al  Al5  1  0.99492300  0.61805000  0.81010000  1
  Al  Al6  1  0.18690800  0.01338700  0.39064800  1
  Al  Al7  1  0.00162000  0.19085500  0.39351000  1
  Al  Al8  1  0.99258500  0.81499200  0.38027200  1
  Al  Al9  1  0.81033100  0.98744100  0.37969600  1
  Al  Al10  1  0.62449700  0.00834600  0.17292200  1
  Al  Al11  1  0.99662500  0.36567100  0.17359600  1
  Al  Al12  1  0.00101200  0.62657900  0.17786000  1
  Al  Al13  1  0.36415400  0.00297300  0.17440600  1
  Al  Al14  1  0.81075700  0.62596500  0.00096600  1
  Al  Al15  1  0.36946700  0.81597300  0.99849300  1
  Tl  Tl16  1  0.75670000  0.68178800  0.31604700  1
  Si  Si17  1  0.18468100  0.37080000  0.99250600  1
  Si  Si18  1  0.62472200  0.18925900  0.98799900  1
  Si  Si19  1  0.62295800  0.00028400  0.81222300  1
  Si  Si20  1  0.99610300  0.37080500  0.81495300  1
  Si  Si21  1  0.37139100  0.00264200  0.81492800  1
  Si  Si22  1  0.18352800  0.00616900  0.62928100  1
  Si  Si23  1  0.99357200  0.18235000  0.63529000  1
  Si  Si24  1  0.99566200  0.81874200  0.63384200  1
  Si  Si25  1  0.81397100  0.99189300  0.63384600  1
  Si  Si26  1  0.37121200  0.18925000  0.98954000  1
  Si  Si27  1  0.81092500  0.37084300  0.99430800  1
  Si  Si28  1  0.18711300  0.61992500  0.99037800  1
  Si  Si29  1  0.62630600  0.82026300  0.99227600  1
  O  O30  1  0.29211900  0.29392400  0.98334200  1
  O  O31  1  0.22878700  0.49547300  0.00631100  1
  O  O32  1  0.70412200  0.29249600  0.97620800  1
  O  O33  1  0.28885000  0.70202900  0.97055000  1
  O  O34  1  0.50345300  0.78129200  0.00598800  1
  O  O35  1  0.71054800  0.72334300  0.99443700  1
  O  O36  1  0.35339800  0.11290600  0.88351400  1
  O  O37  1  0.10807100  0.35903300  0.88776500  1
  O  O38  1  0.64021000  0.10904000  0.88497200  1
  O  O39  1  0.12383000  0.63133100  0.87656100  1
  O  O40  1  0.89084900  0.35335200  0.89222900  1
  O  O41  1  0.34283200  0.89329900  0.88153000  1
  O  O42  1  0.90063000  0.65403000  0.90138900  1
  O  O43  1  0.64220900  0.89441400  0.88458700  1
  O  O44  1  0.49570000  0.99927900  0.76782600  1
  O  O45  1  0.99255200  0.48645600  0.75770900  1
  O  O46  1  0.27867100  0.99663600  0.72152900  1
  O  O47  1  0.99727300  0.26910100  0.73255700  1
  O  O48  1  0.70938800  0.00006200  0.71472600  1
  O  O49  1  0.02456500  0.72181900  0.71559600  1
  O  O50  1  0.10634400  0.11019200  0.64649400  1
  O  O51  1  0.88901700  0.10043300  0.65176800  1
  O  O52  1  0.11025400  0.89381600  0.65154300  1
  O  O53  1  0.89012800  0.88897000  0.66965500  1
  O  O54  1  0.98586800  0.24334200  0.52254900  1
  O  O55  1  0.76966600  0.97495700  0.51291800  1
  O  O56  1  0.98255800  0.77531200  0.51292800  1
  O  O57  1  0.24509100  0.99807900  0.51735000  1
  O  O58  1  0.13189800  0.14096900  0.38334900  1
  O  O59  1  0.89835800  0.09724100  0.36499100  1
  O  O60  1  0.10137500  0.90339200  0.36258900  1
  O  O61  1  0.86392000  0.86088600  0.33238900  1
  O  O62  1  0.26964800  0.01577100  0.27677900  1
  O  O63  1  0.72658200  0.01757500  0.26941900  1
  O  O64  1  0.99400000  0.27043000  0.27600100  1
  O  O65  1  0.02578100  0.72006400  0.28127700  1
  O  O66  1  0.49527600  0.00052500  0.21594700  1
  O  O67  1  0.99927500  0.49589500  0.21592100  1
  O  O68  1  0.33658800  0.12353300  0.09721900  1
  O  O69  1  0.65783000  0.12877100  0.09912700  1
  O  O70  1  0.11996700  0.33345500  0.10118100  1
  O  O71  1  0.87533000  0.32704000  0.10184800  1
  O  O72  1  0.11901800  0.66050000  0.09613500  1
  O  O73  1  0.87262000  0.67036600  0.12781500  1
  O  O74  1  0.31951700  0.88255600  0.11038500  1
  O  O75  1  0.66753900  0.89761600  0.09393500  1
  O  O76  1  0.49789000  0.22990000  0.99319500  1
  O  O77  1  0.76950100  0.49192600  0.01170300  1
