# generated using pymatgen
data_CaBePO4F
_symmetry_space_group_name_H-M   'P 1'
_cell_length_a   7.75127900
_cell_length_b   4.82146400
_cell_length_c   9.81229060
_cell_angle_alpha   89.06139079
_cell_angle_beta   90.00000000
_cell_angle_gamma   90.00000000
_symmetry_Int_Tables_number   1
_chemical_formula_structural   CaBePO4F
_chemical_formula_sum   'Ca4 Be4 P4 O16 F4'
_cell_volume   366.66074995
_cell_formula_units_Z   4
loop_
 _symmetry_equiv_pos_site_id
 _symmetry_equiv_pos_as_xyz
  1  'x, y, z'
loop_
 _atom_site_type_symbol
 _atom_site_label
 _atom_site_symmetry_multiplicity
 _atom_site_fract_x
 _atom_site_fract_y
 _atom_site_fract_z
 _atom_site_occupancy
  Ca  Ca0  1  0.38891100  0.99588600  0.16920800  1
  Ca  Ca1  1  0.88891100  0.00411400  0.33079200  1
  Ca  Ca2  1  0.61108900  0.00411400  0.83079200  1
  Ca  Ca3  1  0.11108900  0.99588600  0.66920800  1
  Be  Be4  1  0.08637600  0.54154800  0.16257600  1
  Be  Be5  1  0.58637600  0.45845200  0.33742400  1
  Be  Be6  1  0.91362400  0.45845200  0.83742400  1
  Be  Be7  1  0.41362400  0.54154800  0.66257600  1
  P  P8  1  0.23049500  0.47258200  0.41873600  1
  P  P9  1  0.73049500  0.52741800  0.08126400  1
  P  P10  1  0.26950500  0.47258200  0.91873600  1
  P  P11  1  0.76950500  0.52741800  0.58126400  1
  O  O12  1  0.84532900  0.32296500  0.69233300  1
  O  O13  1  0.89342700  0.66024500  0.14698400  1
  O  O14  1  0.60657300  0.66024500  0.64698400  1
  O  O15  1  0.10657300  0.33975500  0.85301600  1
  O  O16  1  0.65467100  0.32296500  0.19233300  1
  O  O17  1  0.28225100  0.64700800  0.54423200  1
  O  O18  1  0.34532900  0.67703500  0.80766700  1
  O  O19  1  0.39342700  0.33975500  0.35301600  1
  O  O20  1  0.39648300  0.24358900  0.96018300  1
  O  O21  1  0.89648300  0.75641100  0.53981700  1
  O  O22  1  0.21774900  0.64700800  0.04423200  1
  O  O23  1  0.10351700  0.24358900  0.46018300  1
  O  O24  1  0.60351700  0.75641100  0.03981700  1
  O  O25  1  0.78225100  0.35299200  0.95576800  1
  O  O26  1  0.71774900  0.35299200  0.45576800  1
  O  O27  1  0.15467100  0.67703500  0.30766700  1
  F  F28  1  0.59192300  0.78528600  0.32501800  1
  F  F29  1  0.90807700  0.78528600  0.82501800  1
  F  F30  1  0.40807700  0.21471400  0.67498200  1
  F  F31  1  0.09192300  0.21471400  0.17498200  1
