# generated using pymatgen
data_CoPO4
_symmetry_space_group_name_H-M   'P 1'
_cell_length_a   5.10946200
_cell_length_b   6.71682500
_cell_length_c   10.45000500
_cell_angle_alpha   90.00000000
_cell_angle_beta   90.00000000
_cell_angle_gamma   90.00000000
_symmetry_Int_Tables_number   1
_chemical_formula_structural   CoPO4
_chemical_formula_sum   'Co4 P4 O16'
_cell_volume   358.63750552
_cell_formula_units_Z   4
loop_
 _symmetry_equiv_pos_site_id
 _symmetry_equiv_pos_as_xyz
  1  'x, y, z'
loop_
 _atom_site_type_symbol
 _atom_site_label
 _atom_site_symmetry_multiplicity
 _atom_site_fract_x
 _atom_site_fract_y
 _atom_site_fract_z
 _atom_site_occupancy
  Co  Co0  1  0.18513300  0.78358500  0.34244700  1
  Co  Co1  1  0.31486700  0.78358500  0.84244700  1
  Co  Co2  1  0.81486700  0.28358500  0.65755300  1
  Co  Co3  1  0.68513300  0.28358500  0.15755300  1
  P  P4  1  0.68642000  0.03760300  0.40500600  1
  P  P5  1  0.81358000  0.03760300  0.90500600  1
  P  P6  1  0.18642000  0.53760300  0.09499400  1
  P  P7  1  0.31358000  0.53760300  0.59499400  1
  O  O8  1  0.24834000  0.57345400  0.95226000  1
  O  O9  1  0.61103900  0.50134600  0.61126300  1
  O  O10  1  0.26315500  0.72542100  0.17283200  1
  O  O11  1  0.83344000  0.85006000  0.35778800  1
  O  O12  1  0.88896100  0.50134600  0.11126300  1
  O  O13  1  0.73684500  0.22542100  0.82716800  1
  O  O14  1  0.25166000  0.57345400  0.45226000  1
  O  O15  1  0.16656000  0.35006000  0.64221200  1
  O  O16  1  0.11103900  0.00134600  0.88873700  1
  O  O17  1  0.33344000  0.35006000  0.14221200  1
  O  O18  1  0.23684500  0.72542100  0.67283200  1
  O  O19  1  0.75166000  0.07345400  0.04774000  1
  O  O20  1  0.76315500  0.22542100  0.32716800  1
  O  O21  1  0.38896100  0.00134600  0.38873700  1
  O  O22  1  0.66656000  0.85006000  0.85778800  1
  O  O23  1  0.74834000  0.07345400  0.54774000  1
