# generated using pymatgen
data_Na2Al2Si3(HO3)4
_symmetry_space_group_name_H-M   'P 1'
_cell_length_a   8.07982200
_cell_length_b   8.46159429
_cell_length_c   8.94236954
_cell_angle_alpha   103.17896096
_cell_angle_beta   99.96410037
_cell_angle_gamma   96.66141637
_symmetry_Int_Tables_number   1
_chemical_formula_structural   Na2Al2Si3(HO3)4
_chemical_formula_sum   'Na4 Al4 Si6 H8 O24'
_cell_volume   578.53840783
_cell_formula_units_Z   2
loop_
 _symmetry_equiv_pos_site_id
 _symmetry_equiv_pos_as_xyz
  1  'x, y, z'
loop_
 _atom_site_type_symbol
 _atom_site_label
 _atom_site_symmetry_multiplicity
 _atom_site_fract_x
 _atom_site_fract_y
 _atom_site_fract_z
 _atom_site_occupancy
  Na  Na0  1  0.97986800  0.74602800  0.28599500  1
  Na  Na1  1  0.60152700  0.20178000  0.59545600  1
  Na  Na2  1  0.22255600  0.97618400  0.67676000  1
  Na  Na3  1  0.98197800  0.31538700  0.79744500  1
  Al  Al4  1  0.05333900  0.13582500  0.40326100  1
  Al  Al5  1  0.85965800  0.45049100  0.42270000  1
  Al  Al6  1  0.85213000  0.85795300  0.57194400  1
  Al  Al7  1  0.55275100  0.54176400  0.21101100  1
  Si  Si8  1  0.33158200  0.94521400  0.23282700  1
  Si  Si9  1  0.40407700  0.48105400  0.83068200  1
  Si  Si10  1  0.65490000  0.17868700  0.22853600  1
  Si  Si11  1  0.69430900  0.71257300  0.97188400  1
  Si  Si12  1  0.42112100  0.74710800  0.36470700  1
  Si  Si13  1  0.91728600  0.00501000  0.90110500  1
  H  H14  1  0.63363500  0.10691000  0.05979300  1
  H  H15  1  0.19901200  0.63512500  0.87963700  1
  H  H16  1  0.29223300  0.37490100  0.02345800  1
  H  H17  1  0.82313700  0.49776100  0.67680800  1
  H  H18  1  0.59442900  0.85241600  0.42553900  1
  H  H19  1  0.07813800  0.25508400  0.16964700  1
  H  H20  1  0.38265300  0.71086500  0.60127500  1
  H  H21  1  0.39384000  0.83220800  0.99253100  1
  O  O22  1  0.68141500  0.68127200  0.14149000  1
  O  O23  1  0.03927500  0.16961700  0.00739400  1
  O  O24  1  0.40607100  0.42132900  0.01345900  1
  O  O25  1  0.04419400  0.46354200  0.33127200  1
  O  O26  1  0.82030900  0.88183400  0.99448800  1
  O  O27  1  0.12484400  0.31302300  0.29525500  1
  O  O28  1  0.49936900  0.09734200  0.29890500  1
  O  O29  1  0.96998800  0.97749900  0.48250400  1
  O  O30  1  0.83285100  0.39907000  0.59853100  1
  O  O31  1  0.76260000  0.08330700  0.79920500  1
  O  O32  1  0.84153900  0.19303600  0.33699200  1
  O  O33  1  0.16046300  0.00676600  0.27501100  1
  O  O34  1  0.32452700  0.75776400  0.52096900  1
  O  O35  1  0.65016700  0.38110500  0.26631800  1
  O  O36  1  0.30475300  0.88364300  0.03854700  1
  O  O37  1  0.18374200  0.22485800  0.61148700  1
  O  O38  1  0.67686000  0.95515600  0.64436100  1
  O  O39  1  0.49609500  0.68468300  0.86690500  1
  O  O40  1  0.98628300  0.88406400  0.76399200  1
  O  O41  1  0.76744800  0.55321000  0.86903300  1
  O  O42  1  0.82484900  0.65642200  0.45635600  1
  O  O43  1  0.36059100  0.32717700  0.66065300  1
  O  O44  1  0.61510100  0.42027700  0.83363600  1
  O  O45  1  0.20251100  0.52367400  0.82023700  1
