# generated using pymatgen
data_Na8Al11Si13(AgO16)3
_symmetry_space_group_name_H-M   'P 1'
_cell_length_a   12.31311000
_cell_length_b   12.40368854
_cell_length_c   12.64096615
_cell_angle_alpha   90.21239877
_cell_angle_beta   90.57122829
_cell_angle_gamma   90.12920524
_symmetry_Int_Tables_number   1
_chemical_formula_structural   Na8Al11Si13(AgO16)3
_chemical_formula_sum   'Na8 Al11 Si13 Ag3 O48'
_cell_volume   1930.51495797
_cell_formula_units_Z   1
loop_
 _symmetry_equiv_pos_site_id
 _symmetry_equiv_pos_as_xyz
  1  'x, y, z'
loop_
 _atom_site_type_symbol
 _atom_site_label
 _atom_site_symmetry_multiplicity
 _atom_site_fract_x
 _atom_site_fract_y
 _atom_site_fract_z
 _atom_site_occupancy
  Na  Na0  1  0.79397000  0.78335300  0.21235100  1
  Na  Na1  1  0.21210900  0.78978100  0.21350700  1
  Na  Na2  1  0.00505100  0.38670400  0.55802200  1
  Na  Na3  1  0.00021800  0.60971100  0.56814000  1
  Na  Na4  1  0.78790100  0.20292500  0.78167700  1
  Na  Na5  1  0.21268400  0.20388900  0.78345700  1
  Na  Na6  1  0.79220800  0.79627800  0.78155100  1
  Na  Na7  1  0.52312400  0.46619600  0.48327300  1
  Al  Al8  1  0.99942200  0.36814800  0.18065400  1
  Al  Al9  1  0.18702800  0.99796700  0.36571500  1
  Al  Al10  1  0.00075700  0.81597800  0.36774200  1
  Al  Al11  1  0.80788200  0.00116200  0.62373300  1
  Al  Al12  1  0.99801500  0.17736000  0.63019600  1
  Al  Al13  1  0.19061300  0.00288000  0.62596300  1
  Al  Al14  1  0.99631300  0.81997400  0.62842500  1
  Al  Al15  1  0.36538600  0.99759200  0.82574700  1
  Al  Al16  1  0.99967200  0.37141600  0.81870700  1
  Al  Al17  1  0.99866500  0.63189500  0.82020300  1
  Al  Al18  1  0.63249500  0.99816800  0.82259500  1
  Si  Si19  1  0.63017200  0.81432400  0.00340800  1
  Si  Si20  1  0.36999600  0.81418100  0.00296300  1
  Si  Si21  1  0.37393300  0.99981100  0.17740700  1
  Si  Si22  1  0.00054800  0.62780800  0.17850900  1
  Si  Si23  1  0.63265500  0.00153800  0.17737600  1
  Si  Si24  1  0.81530300  0.99896300  0.36672700  1
  Si  Si25  1  0.99845800  0.18446400  0.36947200  1
  Si  Si26  1  0.63043300  0.18484900  0.00049200  1
  Si  Si27  1  0.37106300  0.18526300  0.00017700  1
  Si  Si28  1  0.81182400  0.36964400  0.00070400  1
  Si  Si29  1  0.18806600  0.37055400  0.00203400  1
  Si  Si30  1  0.81439700  0.62827000  0.00044000  1
  Si  Si31  1  0.18451700  0.62857900  0.00401600  1
  Ag  Ag32  1  0.77875300  0.23160300  0.23511600  1
  Ag  Ag33  1  0.17881700  0.17953500  0.18431100  1
  Ag  Ag34  1  0.94323700  0.08429400  0.04256700  1
  O  O35  1  0.69699600  0.30000300  0.00677500  1
  O  O36  1  0.78104900  0.49942100  0.00369900  1
  O  O37  1  0.50114600  0.21527400  0.00521600  1
  O  O38  1  0.30205000  0.29893100  0.00960600  1
  O  O39  1  0.70369800  0.70326300  0.01846900  1
  O  O40  1  0.21991400  0.49983200  0.00867300  1
  O  O41  1  0.50103200  0.78093200  0.00911600  1
  O  O42  1  0.29660800  0.70289100  0.01959800  1
  O  O43  1  0.66031400  0.11385900  0.11117000  1
  O  O44  1  0.87720000  0.33608800  0.10995000  1
  O  O45  1  0.34623700  0.11022000  0.10736200  1
  O  O46  1  0.88938900  0.65680500  0.10667400  1
  O  O47  1  0.11825900  0.33698900  0.10793500  1
  O  O48  1  0.66131200  0.88852300  0.11269900  1
  O  O49  1  0.11430000  0.65778500  0.11401100  1
  O  O50  1  0.34651800  0.88528900  0.11426800  1
  O  O51  1  0.50436100  0.00084100  0.20566300  1
  O  O52  1  0.00059700  0.50347100  0.21128900  1
  O  O53  1  0.70786300  0.00472700  0.28298600  1
  O  O54  1  0.99011100  0.29329600  0.29721800  1
  O  O55  1  0.30057400  0.00410000  0.27932000  1
  O  O56  1  0.99093900  0.70365400  0.28069800  1
  O  O57  1  0.88573300  0.11217700  0.33740300  1
  O  O58  1  0.10569300  0.11591500  0.33439900  1
  O  O59  1  0.88096100  0.89140800  0.33055200  1
  O  O60  1  0.11584600  0.88350400  0.32642200  1
  O  O61  1  0.77722300  0.00183700  0.48520300  1
  O  O62  1  0.99840800  0.22216600  0.49202500  1
  O  O63  1  0.22593600  0.00070900  0.49443300  1
  O  O64  1  0.99715500  0.76778200  0.49607000  1
  O  O65  1  0.87574400  0.11946300  0.65621500  1
  O  O66  1  0.11748300  0.11686200  0.66189900  1
  O  O67  1  0.87876100  0.88671300  0.65738000  1
  O  O68  1  0.11549100  0.88861600  0.65565800  1
  O  O69  1  0.69976900  0.99917000  0.70755100  1
  O  O70  1  0.30052600  0.01605600  0.70906800  1
  O  O71  1  0.99896000  0.29811200  0.70250700  1
  O  O72  1  0.98602600  0.70524100  0.70679800  1
  O  O73  1  0.49917300  0.00269700  0.80264700  1
  O  O74  1  0.99701700  0.50111900  0.77135400  1
  O  O75  1  0.67053300  0.11772000  0.89986500  1
  O  O76  1  0.33142600  0.12064900  0.89782700  1
  O  O77  1  0.87925700  0.33755100  0.89546000  1
  O  O78  1  0.12105100  0.33936200  0.89494100  1
  O  O79  1  0.87539900  0.66197300  0.89413900  1
  O  O80  1  0.11339600  0.65668600  0.90279400  1
  O  O81  1  0.66745100  0.87867100  0.90045300  1
  O  O82  1  0.33573400  0.88249100  0.90386400  1
