# generated using pymatgen
data_SiO2
_symmetry_space_group_name_H-M   'P 1'
_cell_length_a   5.10620454
_cell_length_b   5.10620454
_cell_length_c   5.59048200
_cell_angle_alpha   90.00000000
_cell_angle_beta   90.00000000
_cell_angle_gamma   120.00000695
_symmetry_Int_Tables_number   1
_chemical_formula_structural   SiO2
_chemical_formula_sum   'Si3 O6'
_cell_volume   126.23397819
_cell_formula_units_Z   3
loop_
 _symmetry_equiv_pos_site_id
 _symmetry_equiv_pos_as_xyz
  1  'x, y, z'
loop_
 _atom_site_type_symbol
 _atom_site_label
 _atom_site_symmetry_multiplicity
 _atom_site_fract_x
 _atom_site_fract_y
 _atom_site_fract_z
 _atom_site_occupancy
  Si  Si0  1  0.00000000  0.50000000  0.66666700  1
  Si  Si1  1  0.50000000  0.50000000  0.33333300  1
  Si  Si2  1  0.50000000  0.00000000  0.00000000  1
  O  O3  1  0.79171900  0.58343900  0.50000000  1
  O  O4  1  0.20828100  0.79171900  0.83333300  1
  O  O5  1  0.58343900  0.79171900  0.16666700  1
  O  O6  1  0.20828100  0.41656100  0.50000000  1
  O  O7  1  0.79171900  0.20828100  0.83333300  1
  O  O8  1  0.41656100  0.20828100  0.16666700  1
