# generated using pymatgen
data_Al4Zn4P8H13N3O32
_symmetry_space_group_name_H-M   'P 1'
_cell_length_a   9.00290900
_cell_length_b   9.49222519
_cell_length_c   9.50089483
_cell_angle_alpha   89.70142178
_cell_angle_beta   97.51329905
_cell_angle_gamma   98.30169843
_symmetry_Int_Tables_number   1
_chemical_formula_structural   Al4Zn4P8H13N3O32
_chemical_formula_sum   'Al4 Zn4 P8 H13 N3 O32'
_cell_volume   796.44129605
_cell_formula_units_Z   1
loop_
 _symmetry_equiv_pos_site_id
 _symmetry_equiv_pos_as_xyz
  1  'x, y, z'
loop_
 _atom_site_type_symbol
 _atom_site_label
 _atom_site_symmetry_multiplicity
 _atom_site_fract_x
 _atom_site_fract_y
 _atom_site_fract_z
 _atom_site_occupancy
  Al  Al0  1  0.06484900  0.20572000  0.95035200  1
  Al  Al1  1  0.38707900  0.56943200  0.68567200  1
  Al  Al2  1  0.61166900  0.43237500  0.31046000  1
  Al  Al3  1  0.88923600  0.69030600  0.57929400  1
  Zn  Zn4  1  0.12650100  0.31705200  0.44582200  1
  Zn  Zn5  1  0.44818300  0.04257700  0.79519000  1
  Zn  Zn6  1  0.55905100  0.95701500  0.20777400  1
  Zn  Zn7  1  0.93596200  0.77935000  0.02764100  1
  P  P8  1  0.09414200  0.91751400  0.78923700  1
  P  P9  1  0.03644600  0.43223400  0.71137600  1
  P  P10  1  0.47254600  0.29311400  0.56263000  1
  P  P11  1  0.58441400  0.78269500  0.91457400  1
  P  P12  1  0.41158200  0.20943600  0.08424400  1
  P  P13  1  0.54704900  0.70689500  0.44500600  1
  P  P14  1  0.95617700  0.55804300  0.29568000  1
  P  P15  1  0.91801400  0.07497100  0.19967700  1
  H  H16  1  0.25547000  0.63644700  0.98361500  1
  H  H17  1  0.17593900  0.59161600  0.13125300  1
  H  H18  1  0.14785500  0.09343200  0.32008300  1
  H  H19  1  0.27085100  0.47536800  0.05742400  1
  H  H20  1  0.36915100  0.62495100  0.13589800  1
  H  H21  1  0.62321000  0.37722500  0.87350600  1
  H  H22  1  0.71955600  0.53801600  0.93773100  1
  H  H23  1  0.77806700  0.97587200  0.62587900  1
  H  H24  1  0.67589300  0.11136100  0.59174800  1
  H  H25  1  0.81366200  0.41150100  0.87958300  1
  H  H26  1  0.73622800  0.38335300  0.02897100  1
  H  H27  1  0.76952500  0.05178100  0.46419400  1
  H  H28  1  0.86922700  0.14207500  0.60565800  1
  N  N29  1  0.26813100  0.58193400  0.07731400  1
  N  N30  1  0.72247700  0.42707200  0.92992900  1
  N  N31  1  0.77360700  0.06949100  0.57200900  1
  O  O32  1  0.10217900  0.81327000  0.91355500  1
  O  O33  1  0.01641400  0.36361400  0.85925700  1
  O  O34  1  0.03666100  0.05731600  0.83587500  1
  O  O35  1  0.00614300  0.31045600  0.60144300  1
  O  O36  1  0.05230600  0.12768800  0.33294400  1
  O  O37  1  0.08927900  0.47537300  0.33395600  1
  O  O38  1  0.19631200  0.51658100  0.71346900  1
  O  O39  1  0.24442900  0.95445700  0.73154500  1
  O  O40  1  0.25032700  0.25482500  0.03803900  1
  O  O41  1  0.32201300  0.26244000  0.46532700  1
  O  O42  1  0.41010700  0.66326500  0.52820900  1
  O  O43  1  0.46196200  0.65997000  0.84358800  1
  O  O44  1  0.46761600  0.41072800  0.67615800  1
  O  O45  1  0.48564000  0.18317000  0.95229300  1
  O  O46  1  0.60024900  0.91286700  0.81784200  1
  O  O47  1  0.54181000  0.85461800  0.38582500  1
  O  O48  1  0.52045500  0.16179400  0.64010400  1
  O  O49  1  0.39938200  0.08185000  0.18410400  1
  O  O50  1  0.53264200  0.81541700  0.05716700  1
  O  O51  1  0.53870200  0.59533700  0.32257100  1
  O  O52  1  0.50520200  0.34533800  0.16031200  1
  O  O53  1  0.60131100  0.34404900  0.47165200  1
  O  O54  1  0.69391000  0.69965300  0.55044300  1
  O  O55  1  0.73345600  0.71578900  0.93431800  1
  O  O56  1  0.76947500  0.07551500  0.25891200  1
  O  O57  1  0.80136900  0.45694400  0.27771100  1
  O  O58  1  0.92030600  0.53828800  0.68510000  1
  O  O59  1  0.97123000  0.85108900  0.66596600  1
  O  O60  1  0.95183400  0.67065200  0.41338900  1
  O  O61  1  0.95827800  0.93351700  0.16038100  1
  O  O62  1  0.98282400  0.62495500  0.15271200  1
  O  O63  1  0.93772900  0.18625200  0.08031100  1
