# generated using pymatgen
data_Na25Zr11Sc5Si12(PO8)12
_symmetry_space_group_name_H-M   'P 1'
_cell_length_a   9.11973500
_cell_length_b   9.12563790
_cell_length_c   31.17348658
_cell_angle_alpha   82.09695426
_cell_angle_beta   81.75041476
_cell_angle_gamma   60.39066016
_symmetry_Int_Tables_number   1
_chemical_formula_structural   Na25Zr11Sc5Si12(PO8)12
_chemical_formula_sum   'Na25 Zr11 Sc5 Si12 P12 O96'
_cell_volume   2225.53939571
_cell_formula_units_Z   1
loop_
 _symmetry_equiv_pos_site_id
 _symmetry_equiv_pos_as_xyz
  1  'x, y, z'
loop_
 _atom_site_type_symbol
 _atom_site_label
 _atom_site_symmetry_multiplicity
 _atom_site_fract_x
 _atom_site_fract_y
 _atom_site_fract_z
 _atom_site_occupancy
  Na  Na0  1  0.30222600  0.17982700  0.07690100  1
  Na  Na1  1  0.60935500  0.16272800  0.12320700  1
  Na  Na2  1  0.58064000  0.79416700  0.18793200  1
  Na  Na3  1  0.54361500  0.71910100  0.46117500  1
  Na  Na4  1  0.82616400  0.39511700  0.37066500  1
  Na  Na5  1  0.99588000  0.49946300  0.00472500  1
  Na  Na6  1  0.96382900  0.80630500  0.04769300  1
  Na  Na7  1  0.92145800  0.70576900  0.31601500  1
  Na  Na8  1  0.94383900  0.08775700  0.17086400  1
  Na  Na9  1  0.81915400  0.03946400  0.44227800  1
  Na  Na10  1  0.79298700  0.96840100  0.71151000  1
  Na  Na11  1  0.07786500  0.64499100  0.62187900  1
  Na  Na12  1  0.27162100  0.71116000  0.24823900  1
  Na  Na13  1  0.20366300  0.05448400  0.29629300  1
  Na  Na14  1  0.18111300  0.95354000  0.56562600  1
  Na  Na15  1  0.18964600  0.33649100  0.42225600  1
  Na  Na16  1  0.07041800  0.28826600  0.69241100  1
  Na  Na17  1  0.05808100  0.17002200  0.95187200  1
  Na  Na18  1  0.32938400  0.89421700  0.87516400  1
  Na  Na19  1  0.45645100  0.27186300  0.53980400  1
  Na  Na20  1  0.43217800  0.20254700  0.81598400  1
  Na  Na21  1  0.44056300  0.58722600  0.67199000  1
  Na  Na22  1  0.32907400  0.54742700  0.94121400  1
  Na  Na23  1  0.70613700  0.52151400  0.79028700  1
  Na  Na24  1  0.68079500  0.84014100  0.92289200  1
  Zr  Zr25  1  0.29812700  0.77481100  0.13823200  1
  Zr  Zr26  1  0.65757400  0.17202500  0.01287600  1
  Zr  Zr27  1  0.54526100  0.03606600  0.38844900  1
  Zr  Zr28  1  0.57653100  0.09161100  0.23505200  1
  Zr  Zr29  1  0.90691700  0.41927600  0.26223400  1
  Zr  Zr30  1  0.79398200  0.28496300  0.63956600  1
  Zr  Zr31  1  0.83500600  0.33409000  0.48710100  1
  Zr  Zr32  1  0.15462900  0.66652500  0.51282500  1
  Zr  Zr33  1  0.04579300  0.53425400  0.88973300  1
  Zr  Zr34  1  0.08512800  0.58382200  0.73717700  1
  Zr  Zr35  1  0.40457500  0.91625800  0.76317500  1
  Sc  Sc36  1  0.95882700  0.45852400  0.11202800  1
  Sc  Sc37  1  0.22242200  0.70243000  0.36050800  1
  Sc  Sc38  1  0.47418200  0.95036400  0.61003500  1
  Sc  Sc39  1  0.34086800  0.82729500  0.98690800  1
  Sc  Sc40  1  0.72435800  0.19807400  0.86102400  1
  Si  Si41  1  0.30861900  0.51720800  0.05888300  1
  Si  Si42  1  0.23252700  0.14155500  0.18652900  1
  Si  Si43  1  0.65150600  0.43201700  0.18449000  1
  Si  Si44  1  0.55904800  0.77044000  0.30973700  1
  Si  Si45  1  0.48253100  0.39857000  0.43681100  1
  Si  Si46  1  0.90398600  0.68114000  0.43218600  1
  Si  Si47  1  0.81357800  0.02095900  0.56122800  1
  Si  Si48  1  0.73217700  0.64832000  0.68705800  1
  Si  Si49  1  0.15437100  0.93040400  0.68243800  1
  Si  Si50  1  0.06379100  0.26981900  0.81153500  1
  Si  Si51  1  0.98282800  0.89100300  0.93872100  1
  Si  Si52  1  0.39828900  0.18261200  0.93412700  1
  P  P53  1  0.60440400  0.81455700  0.06337000  1
  P  P54  1  0.01936600  0.10514300  0.06226100  1
  P  P55  1  0.93933100  0.72671300  0.18960300  1
  P  P56  1  0.85293300  0.06519300  0.31385900  1
  P  P57  1  0.26303700  0.35928600  0.31328700  1
  P  P58  1  0.18666900  0.97420200  0.43748300  1
  P  P59  1  0.09939100  0.31775700  0.56585300  1
  P  P60  1  0.51217200  0.60603900  0.56361700  1
  P  P61  1  0.43554000  0.22333600  0.68760500  1
  P  P62  1  0.34920800  0.56800200  0.81583100  1
  P  P63  1  0.76277600  0.85473500  0.81404300  1
  P  P64  1  0.68990900  0.47429000  0.93731900  1
  O  O65  1  0.13192400  0.02111600  0.02133400  1
  O  O66  1  0.15009000  0.26295000  0.14385400  1
  O  O67  1  0.13591700  0.49991700  0.06758000  1
  O  O68  1  0.29380200  0.63297500  0.01318400  1
  O  O69  1  0.38124600  0.26774300  0.27357000  1
  O  O70  1  0.47396500  0.32572400  0.05974800  1
  O  O71  1  0.32131700  0.61563800  0.09768900  1
  O  O72  1  0.24313100  0.95528000  0.18600700  1
  O  O73  1  0.39882400  0.53100600  0.39616700  1
  O  O74  1  0.46642300  0.60282400  0.18159900  1
  O  O75  1  0.63700600  0.25905400  0.19579600  1
  O  O76  1  0.38259500  0.76333200  0.31760600  1
  O  O77  1  0.51740900  0.80166800  0.02682900  1
  O  O78  1  0.84310100  0.11559500  0.06297200  1
  O  O79  1  0.49030900  0.83330800  0.10753600  1
  O  O80  1  0.78029800  0.39928200  0.14122900  1
  O  O81  1  0.42779900  0.10782300  0.18784500  1
  O  O82  1  0.73050300  0.46650200  0.22427300  1
  O  O83  1  0.54590700  0.88799100  0.26380000  1
  O  O84  1  0.61517400  0.98277700  0.05608900  1
  O  O85  1  0.62951200  0.52166400  0.52223600  1
  O  O86  1  0.78499200  0.66546200  0.06649400  1
  O  O87  1  0.73575900  0.58790500  0.30901000  1
  O  O88  1  0.58056700  0.86804100  0.34728800  1
  O  O89  1  0.00899600  0.27905900  0.06234700  1
  O  O90  1  0.49719000  0.21386700  0.43282800  1
  O  O91  1  0.90839500  0.64742200  0.15410900  1
  O  O92  1  0.64808000  0.77892400  0.64628300  1
  O  O93  1  0.78312500  0.90715700  0.19397500  1
  O  O94  1  0.71521000  0.84770100  0.42891800  1
  O  O95  1  0.88048600  0.51362800  0.44675500  1
  O  O96  1  0.95593500  0.61968900  0.23402000  1
  O  O97  1  0.63787800  0.01683600  0.57294200  1
  O  O98  1  0.75947800  0.05098400  0.27842200  1
  O  O99  1  0.08820700  0.36735200  0.31245400  1
  O  O100  1  0.74572400  0.08107200  0.35845700  1
  O  O101  1  0.02645700  0.64604400  0.38737500  1
  O  O102  1  0.67418600  0.37146100  0.43970100  1
  O  O103  1  0.98855000  0.71616100  0.47045500  1
  O  O104  1  0.09642400  0.75276900  0.17976200  1
  O  O105  1  0.79665700  0.13590100  0.51414200  1
  O  O106  1  0.87740200  0.22437800  0.30542200  1
  O  O107  1  0.88038100  0.77169200  0.77260800  1
  O  O108  1  0.02850800  0.90602200  0.31508000  1
  O  O109  1  0.98883900  0.83749900  0.55815200  1
  O  O110  1  0.10193400  0.99077700  0.10361500  1
  O  O111  1  0.84850400  0.11517300  0.59662500  1
  O  O112  1  0.23896800  0.53915500  0.31100500  1
  O  O113  1  0.74569900  0.46384300  0.68323400  1
  O  O114  1  0.14365100  0.90292600  0.40251700  1
  O  O115  1  0.89283500  0.01794800  0.89746700  1
  O  O116  1  0.03634500  0.15511600  0.44473200  1
  O  O117  1  0.96552900  0.09749200  0.67953400  1
  O  O118  1  0.11078400  0.22613000  0.23086500  1
  O  O119  1  0.12998400  0.76319200  0.69684000  1
  O  O120  1  0.21827400  0.85846700  0.48083400  1
  O  O121  1  0.88895500  0.26381200  0.82335900  1
  O  O122  1  0.01073100  0.30004500  0.52931900  1
  O  O123  1  0.33695700  0.61699700  0.56141400  1
  O  O124  1  0.98638900  0.34305600  0.60913700  1
  O  O125  1  0.27663900  0.89404900  0.63767600  1
  O  O126  1  0.92399900  0.62135900  0.68972500  1
  O  O127  1  0.23912400  0.96526700  0.72063500  1
  O  O128  1  0.34759000  0.99324000  0.42501300  1
  O  O129  1  0.04591500  0.38634400  0.76468400  1
  O  O130  1  0.12396400  0.47631200  0.55497400  1
  O  O131  1  0.27235400  0.15868700  0.56870900  1
  O  O132  1  0.23957700  0.08767300  0.80837400  1
  O  O133  1  0.34014600  0.25036500  0.35521100  1
  O  O134  1  0.09754200  0.36302500  0.84776500  1
  O  O135  1  0.48961300  0.78390200  0.56277600  1
  O  O136  1  0.99371300  0.70500400  0.93744800  1
  O  O137  1  0.39038400  0.15247400  0.65316800  1
  O  O138  1  0.28682100  0.40540500  0.69480400  1
  O  O139  1  0.20739900  0.35280400  0.93387800  1
  O  O140  1  0.36262800  0.47324400  0.48184900  1
  O  O141  1  0.37529000  0.01494300  0.94571600  1
  O  O142  1  0.46814600  0.10854000  0.73108900  1
  O  O143  1  0.25964100  0.55002100  0.77962000  1
  O  O144  1  0.58823200  0.86545100  0.81163800  1
  O  O145  1  0.23664400  0.59245000  0.85941300  1
  O  O146  1  0.51627500  0.16009700  0.88858100  1
  O  O147  1  0.17184700  0.86954200  0.93952200  1
  O  O148  1  0.48710200  0.21477900  0.97234100  1
  O  O149  1  0.59771900  0.24089000  0.67484300  1
  O  O150  1  0.37271900  0.72650500  0.80492800  1
  O  O151  1  0.52252100  0.40878700  0.81857700  1
  O  O152  1  0.59060900  0.48994500  0.60420500  1
  O  O153  1  0.73867000  0.03346000  0.81362300  1
  O  O154  1  0.65474100  0.40002700  0.90133400  1
  O  O155  1  0.54010600  0.65297900  0.94370700  1
  O  O156  1  0.61289300  0.72314200  0.73207700  1
  O  O157  1  0.72120400  0.35367500  0.97990400  1
  O  O158  1  0.85417100  0.48961600  0.92744500  1
  O  O159  1  0.84144700  0.73897700  0.85480100  1
  O  O160  1  0.86238800  0.97111300  0.98363300  1
