# generated using pymatgen
data_KNaO
_symmetry_space_group_name_H-M   'P 1'
_cell_length_a   4.05109300
_cell_length_b   4.05109300
_cell_length_c   6.29639200
_cell_angle_alpha   90.00000000
_cell_angle_beta   90.00000000
_cell_angle_gamma   90.00000000
_symmetry_Int_Tables_number   1
_chemical_formula_structural   KNaO
_chemical_formula_sum   'K2 Na2 O2'
_cell_volume   103.33232115
_cell_formula_units_Z   2
loop_
 _symmetry_equiv_pos_site_id
 _symmetry_equiv_pos_as_xyz
  1  'x, y, z'
loop_
 _atom_site_type_symbol
 _atom_site_label
 _atom_site_symmetry_multiplicity
 _atom_site_fract_x
 _atom_site_fract_y
 _atom_site_fract_z
 _atom_site_occupancy
  K  K0  1  0.50000000  0.00000000  0.36691700  1
  K  K1  1  0.00000000  0.50000000  0.63308300  1
  Na  Na2  1  0.50000000  0.50000000  0.00000000  1
  Na  Na3  1  0.00000000  0.00000000  0.00000000  1
  O  O4  1  0.00000000  0.50000000  0.20696600  1
  O  O5  1  0.50000000  0.00000000  0.79303400  1
