# generated using pymatgen
data_In2(WO4)3
_symmetry_space_group_name_H-M   'P 1'
_cell_length_a   9.80727400
_cell_length_b   16.68321600
_cell_length_c   16.75480728
_cell_angle_alpha   70.83782249
_cell_angle_beta   90.00000000
_cell_angle_gamma   90.00000000
_symmetry_Int_Tables_number   1
_chemical_formula_structural   In2(WO4)3
_chemical_formula_sum   'In16 W24 O96'
_cell_volume   2589.47880161
_cell_formula_units_Z   8
loop_
 _symmetry_equiv_pos_site_id
 _symmetry_equiv_pos_as_xyz
  1  'x, y, z'
loop_
 _atom_site_type_symbol
 _atom_site_label
 _atom_site_symmetry_multiplicity
 _atom_site_fract_x
 _atom_site_fract_y
 _atom_site_fract_z
 _atom_site_occupancy
  In  In0  1  0.54219900  0.67547200  0.95230900  1
  In  In1  1  0.46511500  0.43769500  0.68117300  1
  In  In2  1  0.97336700  0.56668900  0.81537700  1
  In  In3  1  0.02663300  0.43331100  0.18462300  1
  In  In4  1  0.51773900  0.18889400  0.41731000  1
  In  In5  1  0.48226100  0.81110600  0.58269000  1
  In  In6  1  0.04219900  0.82452800  0.04769100  1
  In  In7  1  0.98226100  0.68889400  0.41731000  1
  In  In8  1  0.96511500  0.06230500  0.31882700  1
  In  In9  1  0.45780100  0.32452800  0.04769100  1
  In  In10  1  0.03488500  0.93769500  0.68117300  1
  In  In11  1  0.47336700  0.93331100  0.18462300  1
  In  In12  1  0.53488500  0.56230500  0.31882700  1
  In  In13  1  0.52663300  0.06668900  0.81537700  1
  In  In14  1  0.95780100  0.17547200  0.95230900  1
  In  In15  1  0.01773900  0.31110600  0.58269000  1
  W  W16  1  0.74749400  0.99431000  0.51283300  1
  W  W17  1  0.25485500  0.01784200  0.98049600  1
  W  W18  1  0.13015900  0.36182100  0.78683600  1
  W  W19  1  0.24749400  0.50569000  0.48716700  1
  W  W20  1  0.38738500  0.38889700  0.25088500  1
  W  W21  1  0.61261500  0.61110300  0.74911500  1
  W  W22  1  0.87580400  0.77598300  0.86395100  1
  W  W23  1  0.36984100  0.86182100  0.78683600  1
  W  W24  1  0.12419600  0.22401700  0.13604900  1
  W  W25  1  0.75485500  0.48215800  0.01950400  1
  W  W26  1  0.86984100  0.63817900  0.21316400  1
  W  W27  1  0.62419600  0.27598300  0.86395100  1
  W  W28  1  0.74514500  0.98215800  0.01950400  1
  W  W29  1  0.24514500  0.51784200  0.98049600  1
  W  W30  1  0.37580400  0.72401700  0.13604900  1
  W  W31  1  0.61584200  0.76610200  0.38452400  1
  W  W32  1  0.25250600  0.00569000  0.48716700  1
  W  W33  1  0.11584200  0.73389800  0.61547600  1
  W  W34  1  0.75250600  0.49431000  0.51283300  1
  W  W35  1  0.63015900  0.13817900  0.21316400  1
  W  W36  1  0.11261500  0.88889700  0.25088500  1
  W  W37  1  0.88415800  0.26610200  0.38452400  1
  W  W38  1  0.88738500  0.11110300  0.74911500  1
  W  W39  1  0.38415800  0.23389800  0.61547600  1
  O  O40  1  0.43278100  0.85084800  0.68995600  1
  O  O41  1  0.10858300  0.78526900  0.33173100  1
  O  O42  1  0.80952500  0.99891400  0.40927500  1
  O  O43  1  0.04174100  0.44853900  0.80642600  1
  O  O44  1  0.37735300  0.99862800  0.06517600  1
  O  O45  1  0.11288400  0.00555900  0.41614600  1
  O  O46  1  0.20247700  0.73170000  0.09585100  1
  O  O47  1  0.11541600  0.08082600  0.99965600  1
  O  O48  1  0.92377300  0.12150300  0.85147800  1
  O  O49  1  0.28038400  0.93578300  0.24803300  1
  O  O50  1  0.29752300  0.23170000  0.09585100  1
  O  O51  1  0.57622700  0.62150300  0.85147800  1
  O  O52  1  0.21961600  0.43578300  0.24803300  1
  O  O53  1  0.33862200  0.07445300  0.88153800  1
  O  O54  1  0.60413000  0.23655800  0.12632200  1
  O  O55  1  0.19047500  0.00108600  0.59072500  1
  O  O56  1  0.80712800  0.08371700  0.02408700  1
  O  O57  1  0.09160900  0.31402500  0.17001700  1
  O  O58  1  0.40839100  0.81402500  0.17001700  1
  O  O59  1  0.66137800  0.92554700  0.11846200  1
  O  O60  1  0.54174100  0.05146100  0.19357400  1
  O  O61  1  0.48380600  0.54339700  0.72697100  1
  O  O62  1  0.49815000  0.72115500  0.05533100  1
  O  O63  1  0.14097300  0.41349600  0.49906000  1
  O  O64  1  0.93573100  0.36243900  0.30290200  1
  O  O65  1  0.10413000  0.26344200  0.87367800  1
  O  O66  1  0.50185000  0.27884500  0.94466900  1
  O  O67  1  0.69913900  0.26615000  0.39083400  1
  O  O68  1  0.56426900  0.86243900  0.30290200  1
  O  O69  1  0.83862200  0.42554700  0.11846200  1
  O  O70  1  0.11636700  0.12859600  0.22800200  1
  O  O71  1  0.70247700  0.76830000  0.90414900  1
  O  O72  1  0.45825900  0.94853900  0.80642600  1
  O  O73  1  0.12264700  0.49862800  0.06517600  1
  O  O74  1  0.81248600  0.11877400  0.22441100  1
  O  O75  1  0.19913900  0.23385000  0.60916600  1
  O  O76  1  0.88363300  0.87140400  0.77199800  1
  O  O77  1  0.69287200  0.58371700  0.02408700  1
  O  O78  1  0.95850100  0.26370200  0.48415900  1
  O  O79  1  0.30086100  0.73385000  0.60916600  1
  O  O80  1  0.99815000  0.77884500  0.94466900  1
  O  O81  1  0.55824100  0.67239000  0.36256000  1
  O  O82  1  0.39587000  0.76344200  0.87367800  1
  O  O83  1  0.51619400  0.45660300  0.27302900  1
  O  O84  1  0.56721900  0.14915200  0.31004400  1
  O  O85  1  0.05824100  0.82761000  0.63744000  1
  O  O86  1  0.38458400  0.58082600  0.99965600  1
  O  O87  1  0.34951300  0.10207400  0.44470200  1
  O  O88  1  0.98380600  0.95660300  0.27302900  1
  O  O89  1  0.01619400  0.04339700  0.72697100  1
  O  O90  1  0.45850100  0.23629800  0.51584100  1
  O  O91  1  0.43573100  0.13756100  0.69709800  1
  O  O92  1  0.39141700  0.28526900  0.33173100  1
  O  O93  1  0.89587000  0.73655800  0.12632200  1
  O  O94  1  0.61541600  0.41917400  0.00034400  1
  O  O95  1  0.71961600  0.06421700  0.75196700  1
  O  O96  1  0.38363300  0.62859600  0.22800200  1
  O  O97  1  0.93278100  0.64915200  0.31004400  1
  O  O98  1  0.42377300  0.37849700  0.14852200  1
  O  O99  1  0.61636700  0.37140400  0.77199800  1
  O  O100  1  0.31248600  0.38122600  0.77558900  1
  O  O101  1  0.79752300  0.26830000  0.90414900  1
  O  O102  1  0.95825900  0.55146100  0.19357400  1
  O  O103  1  0.87735300  0.50137200  0.93482400  1
  O  O104  1  0.69047500  0.49891400  0.40927500  1
  O  O105  1  0.38711600  0.50555900  0.41614600  1
  O  O106  1  0.68751400  0.61877400  0.22441100  1
  O  O107  1  0.80086100  0.76615000  0.39083400  1
  O  O108  1  0.06426900  0.63756100  0.69709800  1
  O  O109  1  0.44175900  0.32761000  0.63744000  1
  O  O110  1  0.00185000  0.22115500  0.05533100  1
  O  O111  1  0.30712800  0.41628300  0.97591300  1
  O  O112  1  0.60858300  0.71473100  0.66826900  1
  O  O113  1  0.07622700  0.87849700  0.14852200  1
  O  O114  1  0.54149900  0.76370200  0.48415900  1
  O  O115  1  0.88711600  0.99444100  0.58385400  1
  O  O116  1  0.89141700  0.21473100  0.66826900  1
  O  O117  1  0.04149900  0.73629800  0.51584100  1
  O  O118  1  0.15048700  0.60207400  0.44470200  1
  O  O119  1  0.64097300  0.08650400  0.50094000  1
  O  O120  1  0.65048700  0.89792600  0.55529800  1
  O  O121  1  0.94175900  0.17239000  0.36256000  1
  O  O122  1  0.30952500  0.50108600  0.59072500  1
  O  O123  1  0.16137800  0.57445300  0.88153800  1
  O  O124  1  0.61288400  0.49444100  0.58385400  1
  O  O125  1  0.88458400  0.91917400  0.00034400  1
  O  O126  1  0.19287200  0.91628300  0.97591300  1
  O  O127  1  0.84951300  0.39792600  0.55529800  1
  O  O128  1  0.78038400  0.56421700  0.75196700  1
  O  O129  1  0.35902700  0.91349600  0.49906000  1
  O  O130  1  0.62264700  0.00137200  0.93482400  1
  O  O131  1  0.59160900  0.18597500  0.82998300  1
  O  O132  1  0.90839100  0.68597500  0.82998300  1
  O  O133  1  0.06721900  0.35084800  0.68995600  1
  O  O134  1  0.85902700  0.58650400  0.50094000  1
  O  O135  1  0.18751400  0.88122600  0.77558900  1
