# generated using pymatgen
data_V3(PO4)4
_symmetry_space_group_name_H-M   'P 1'
_cell_length_a   7.64168600
_cell_length_b   9.02413479
_cell_length_c   13.29106843
_cell_angle_alpha   84.27509427
_cell_angle_beta   89.00727405
_cell_angle_gamma   89.63234235
_symmetry_Int_Tables_number   1
_chemical_formula_structural   V3(PO4)4
_chemical_formula_sum   'V9 P12 O48'
_cell_volume   911.82835326
_cell_formula_units_Z   3
loop_
 _symmetry_equiv_pos_site_id
 _symmetry_equiv_pos_as_xyz
  1  'x, y, z'
loop_
 _atom_site_type_symbol
 _atom_site_label
 _atom_site_symmetry_multiplicity
 _atom_site_fract_x
 _atom_site_fract_y
 _atom_site_fract_z
 _atom_site_occupancy
  V  V0  1  0.53982500  0.67507700  0.83026700  1
  V  V1  1  0.36025300  0.74122000  0.17445500  1
  V  V2  1  0.51901300  0.31831000  0.15783500  1
  V  V3  1  0.98870000  0.15044800  0.82776400  1
  V  V4  1  0.85359700  0.09262900  0.49220000  1
  V  V5  1  0.01226000  0.51595800  0.50731600  1
  V  V6  1  0.46225400  0.99051400  0.50223300  1
  V  V7  1  0.96670000  0.84416300  0.16937400  1
  V  V8  1  0.14710900  0.57405400  0.84155900  1
  P  P9  1  0.18762900  0.20127600  0.61570800  1
  P  P10  1  0.31641000  0.67425300  0.61239700  1
  P  P11  1  0.83136600  0.16130400  0.05324200  1
  P  P12  1  0.70082200  0.63446000  0.05203700  1
  P  P13  1  0.78566300  0.80865100  0.39074000  1
  P  P14  1  0.28952900  0.02380600  0.27899600  1
  P  P15  1  0.68710200  0.99107900  0.72167700  1
  P  P16  1  0.21644200  0.85479900  0.94418400  1
  P  P17  1  0.16863300  0.51964100  0.27950900  1
  P  P18  1  0.66442100  0.31261100  0.38593100  1
  P  P19  1  0.81380000  0.46364300  0.71902700  1
  P  P20  1  0.33502300  0.35434300  0.94752500  1
  O  O21  1  0.33332000  0.35554500  0.06481900  1
  O  O22  1  0.87211300  0.68402100  0.09647000  1
  O  O23  1  0.60238300  0.83916100  0.43208600  1
  O  O24  1  0.30155200  0.66054100  0.73569500  1
  O  O25  1  0.37753100  0.52900500  0.90715900  1
  O  O26  1  0.91223800  0.93669600  0.42353600  1
  O  O27  1  0.44546000  0.24088100  0.90635700  1
  O  O28  1  0.63770800  0.51168000  0.76267300  1
  O  O29  1  0.64161500  0.81765700  0.74461900  1
  O  O30  1  0.86221300  0.65798100  0.42762800  1
  O  O31  1  0.13625000  0.00569200  0.91484900  1
  O  O32  1  0.96127700  0.26048200  0.09074300  1
  O  O33  1  0.04266600  0.10218300  0.57593400  1
  O  O34  1  0.85944000  0.29976200  0.43325300  1
  O  O35  1  0.13908900  0.36988900  0.90103300  1
  O  O36  1  0.17029600  0.51579600  0.39704200  1
  O  O37  1  0.21021100  0.82829000  0.06566600  1
  O  O38  1  0.87727500  0.99858500  0.76261800  1
  O  O39  1  0.54971200  0.73573300  0.08700100  1
  O  O40  1  0.12777500  0.69450800  0.24025000  1
  O  O41  1  0.71035900  0.65726900  0.93414100  1
  O  O42  1  0.87094700  0.98777900  0.08822400  1
  O  O43  1  0.10755200  0.99134700  0.24093600  1
  O  O44  1  0.95729900  0.56450300  0.75874100  1
  O  O45  1  0.45320500  0.57499200  0.57856900  1
  O  O46  1  0.55081200  0.08990800  0.75643300  1
  O  O47  1  0.41629500  0.89162600  0.24624400  1
  O  O48  1  0.17857600  0.17602900  0.73329200  1
  O  O49  1  0.54764300  0.42466900  0.42382700  1
  O  O50  1  0.36652900  0.53425800  0.23224700  1
  O  O51  1  0.82326300  0.49001900  0.60159600  1
  O  O52  1  0.83377000  0.16207500  0.93457500  1
  O  O53  1  0.63586900  0.17176700  0.09022800  1
  O  O54  1  0.62389200  0.13798700  0.42607600  1
  O  O55  1  0.39789800  0.82691400  0.90087000  1
  O  O56  1  0.36658100  0.17172400  0.23697900  1
  O  O57  1  0.85335500  0.29899200  0.74804100  1
  O  O58  1  0.65908500  0.47107400  0.08288800  1
  O  O59  1  0.70018700  0.00575600  0.59805600  1
  O  O60  1  0.29357600  0.01262300  0.39654900  1
  O  O61  1  0.14935600  0.36600800  0.58451100  1
  O  O62  1  0.67085300  0.31444200  0.26844600  1
  O  O63  1  0.12591500  0.66599100  0.57206900  1
  O  O64  1  0.36002100  0.84779700  0.58804500  1
  O  O65  1  0.79043800  0.82253500  0.27319800  1
  O  O66  1  0.08816700  0.72793300  0.91335800  1
  O  O67  1  0.05577400  0.40882800  0.24120900  1
  O  O68  1  0.36338900  0.15154800  0.57259500  1
