# generated using pymatgen
data_Rb2ZrFe(PO4)3
_symmetry_space_group_name_H-M   'P 1'
_cell_length_a   10.25453100
_cell_length_b   10.25453100
_cell_length_c   10.25453100
_cell_angle_alpha   90.00000000
_cell_angle_beta   90.00000000
_cell_angle_gamma   90.00000000
_symmetry_Int_Tables_number   1
_chemical_formula_structural   Rb2ZrFe(PO4)3
_chemical_formula_sum   'Rb8 Zr4 Fe4 P12 O48'
_cell_volume   1078.31937095
_cell_formula_units_Z   4
loop_
 _symmetry_equiv_pos_site_id
 _symmetry_equiv_pos_as_xyz
  1  'x, y, z'
loop_
 _atom_site_type_symbol
 _atom_site_label
 _atom_site_symmetry_multiplicity
 _atom_site_fract_x
 _atom_site_fract_y
 _atom_site_fract_z
 _atom_site_occupancy
  Rb  Rb0  1  0.07059500  0.07059500  0.07059500  1
  Rb  Rb1  1  0.21103400  0.71103400  0.78896600  1
  Rb  Rb2  1  0.28896600  0.28896600  0.28896600  1
  Rb  Rb3  1  0.42940500  0.92940500  0.57059500  1
  Rb  Rb4  1  0.57059500  0.42940500  0.92940500  1
  Rb  Rb5  1  0.71103400  0.78896600  0.21103400  1
  Rb  Rb6  1  0.78896600  0.21103400  0.71103400  1
  Rb  Rb7  1  0.92940500  0.57059500  0.42940500  1
  Zr  Zr8  1  0.14273200  0.35726800  0.64273200  1
  Zr  Zr9  1  0.35726800  0.64273200  0.14273200  1
  Zr  Zr10  1  0.64273200  0.14273200  0.35726800  1
  Zr  Zr11  1  0.85726800  0.85726800  0.85726800  1
  Fe  Fe12  1  0.08681700  0.91318300  0.41318300  1
  Fe  Fe13  1  0.41318300  0.08681700  0.91318300  1
  Fe  Fe14  1  0.58681700  0.58681700  0.58681700  1
  Fe  Fe15  1  0.91318300  0.41318300  0.08681700  1
  P  P16  1  0.03846300  0.72486500  0.13195800  1
  P  P17  1  0.13195800  0.03846300  0.72486500  1
  P  P18  1  0.22486500  0.36804200  0.96153700  1
  P  P19  1  0.27513500  0.63195800  0.46153700  1
  P  P20  1  0.36804200  0.96153700  0.22486500  1
  P  P21  1  0.46153700  0.27513500  0.63195800  1
  P  P22  1  0.53846300  0.77513500  0.86804200  1
  P  P23  1  0.63195800  0.46153700  0.27513500  1
  P  P24  1  0.72486500  0.13195800  0.03846300  1
  P  P25  1  0.77513500  0.86804200  0.53846300  1
  P  P26  1  0.86804200  0.53846300  0.77513500  1
  P  P27  1  0.96153700  0.22486500  0.36804200  1
  O  O28  1  0.00328400  0.08244100  0.34951200  1
  O  O29  1  0.02644300  0.95173400  0.79346700  1
  O  O30  1  0.02084700  0.80319700  0.25882300  1
  O  O31  1  0.04826600  0.29346700  0.47355700  1
  O  O32  1  0.08279600  0.18212600  0.73208800  1
  O  O33  1  0.08244100  0.34951200  0.00328400  1
  O  O34  1  0.15048800  0.99671600  0.58244100  1
  O  O35  1  0.18212600  0.73208800  0.08279600  1
  O  O36  1  0.19680300  0.75882300  0.47915300  1
  O  O37  1  0.20653300  0.52644300  0.54826600  1
  O  O38  1  0.23208800  0.41720400  0.81787400  1
  O  O39  1  0.24117700  0.97915300  0.30319700  1
  O  O40  1  0.25882300  0.02084700  0.80319700  1
  O  O41  1  0.26791200  0.58279600  0.31787400  1
  O  O42  1  0.29346700  0.47355700  0.04826600  1
  O  O43  1  0.30319700  0.24117700  0.97915300  1
  O  O44  1  0.31787400  0.26791200  0.58279600  1
  O  O45  1  0.34951200  0.00328400  0.08244100  1
  O  O46  1  0.41755900  0.65048800  0.50328400  1
  O  O47  1  0.41720400  0.81787400  0.23208800  1
  O  O48  1  0.45173400  0.70653300  0.97355700  1
  O  O49  1  0.47915300  0.19680300  0.75882300  1
  O  O50  1  0.47355700  0.04826600  0.29346700  1
  O  O51  1  0.49671600  0.91755900  0.84951200  1
  O  O52  1  0.50328400  0.41755900  0.65048800  1
  O  O53  1  0.52644300  0.54826600  0.20653300  1
  O  O54  1  0.52084700  0.69680300  0.74117700  1
  O  O55  1  0.54826600  0.20653300  0.52644300  1
  O  O56  1  0.58279600  0.31787400  0.26791200  1
  O  O57  1  0.58244100  0.15048800  0.99671600  1
  O  O58  1  0.65048800  0.50328400  0.41755900  1
  O  O59  1  0.68212600  0.76791200  0.91720400  1
  O  O60  1  0.69680300  0.74117700  0.52084700  1
  O  O61  1  0.70653300  0.97355700  0.45173400  1
  O  O62  1  0.73208800  0.08279600  0.18212600  1
  O  O63  1  0.74117700  0.52084700  0.69680300  1
  O  O64  1  0.75882300  0.47915300  0.19680300  1
  O  O65  1  0.76791200  0.91720400  0.68212600  1
  O  O66  1  0.79346700  0.02644300  0.95173400  1
  O  O67  1  0.80319700  0.25882300  0.02084700  1
  O  O68  1  0.81787400  0.23208800  0.41720400  1
  O  O69  1  0.84951200  0.49671600  0.91755900  1
  O  O70  1  0.91755900  0.84951200  0.49671600  1
  O  O71  1  0.91720400  0.68212600  0.76791200  1
  O  O72  1  0.95173400  0.79346700  0.02644300  1
  O  O73  1  0.97915300  0.30319700  0.24117700  1
  O  O74  1  0.97355700  0.45173400  0.70653300  1
  O  O75  1  0.99671600  0.58244100  0.15048800  1
