# generated using pymatgen
data_KFeH5(SO5)2
_symmetry_space_group_name_H-M   'P 1'
_cell_length_a   5.17738500
_cell_length_b   6.40101661
_cell_length_c   7.74007165
_cell_angle_alpha   99.68753316
_cell_angle_beta   102.25497388
_cell_angle_gamma   94.20140985
_symmetry_Int_Tables_number   1
_chemical_formula_structural   KFeH5(SO5)2
_chemical_formula_sum   'K1 Fe1 H5 S2 O10'
_cell_volume   245.50399088
_cell_formula_units_Z   1
loop_
 _symmetry_equiv_pos_site_id
 _symmetry_equiv_pos_as_xyz
  1  'x, y, z'
loop_
 _atom_site_type_symbol
 _atom_site_label
 _atom_site_symmetry_multiplicity
 _atom_site_fract_x
 _atom_site_fract_y
 _atom_site_fract_z
 _atom_site_occupancy
  K  K0  1  0.00426500  0.10998100  0.57379400  1
  Fe  Fe1  1  0.00814600  0.02650400  0.07365500  1
  H  H2  1  0.63661000  0.16830000  0.82448800  1
  H  H3  1  0.24137600  0.59395200  0.84652500  1
  H  H4  1  0.90242300  0.70769600  0.22229100  1
  H  H5  1  0.73168400  0.35471300  0.98787800  1
  H  H6  1  0.30688600  0.81468300  0.36075300  1
  S  S7  1  0.56288300  0.31374200  0.26437400  1
  S  S8  1  0.58229100  0.70641600  0.76025600  1
  O  O9  1  0.05148500  0.81513300  0.22935000  1
  O  O10  1  0.59966600  0.47562700  0.15004500  1
  O  O11  1  0.74197400  0.58866400  0.65378300  1
  O  O12  1  0.68986800  0.11505600  0.20705200  1
  O  O13  1  0.16146700  0.94497600  0.89766500  1
  O  O14  1  0.49857400  0.84829200  0.44902700  1
  O  O15  1  0.43958000  0.88396000  0.62831300  1
  O  O16  1  0.26721500  0.24999400  0.24900800  1
  O  O17  1  0.33538400  0.52816200  0.75565500  1
  O  O18  1  0.80022200  0.24714800  0.90408900  1
