# generated using pymatgen
data_MgTi3Pb5WO15
_symmetry_space_group_name_H-M   'P 1'
_cell_length_a   5.68507100
_cell_length_b   5.68507100
_cell_length_c   19.88940300
_cell_angle_alpha   90.00000000
_cell_angle_beta   90.00000000
_cell_angle_gamma   90.00000000
_symmetry_Int_Tables_number   1
_chemical_formula_structural   MgTi3Pb5WO15
_chemical_formula_sum   'Mg2 Ti6 Pb10 W2 O30'
_cell_volume   642.82614689
_cell_formula_units_Z   2
loop_
 _symmetry_equiv_pos_site_id
 _symmetry_equiv_pos_as_xyz
  1  'x, y, z'
loop_
 _atom_site_type_symbol
 _atom_site_label
 _atom_site_symmetry_multiplicity
 _atom_site_fract_x
 _atom_site_fract_y
 _atom_site_fract_z
 _atom_site_occupancy
  Mg  Mg0  1  0.00000000  0.50000000  0.89858500  1
  Mg  Mg1  1  0.50000000  0.00000000  0.10141500  1
  Ti  Ti2  1  0.50000000  0.00000000  0.29606400  1
  Ti  Ti3  1  0.50000000  0.00000000  0.69551800  1
  Ti  Ti4  1  0.00000000  0.50000000  0.30448200  1
  Ti  Ti5  1  0.00000000  0.50000000  0.70393600  1
  Ti  Ti6  1  0.00000000  0.50000000  0.50368100  1
  Ti  Ti7  1  0.50000000  0.00000000  0.49631900  1
  Pb  Pb8  1  0.50000000  0.50000000  0.00000000  1
  Pb  Pb9  1  0.50000000  0.50000000  0.20319300  1
  Pb  Pb10  1  0.50000000  0.50000000  0.40065800  1
  Pb  Pb11  1  0.50000000  0.50000000  0.79680700  1
  Pb  Pb12  1  0.00000000  0.00000000  0.00000000  1
  Pb  Pb13  1  0.00000000  0.00000000  0.20319300  1
  Pb  Pb14  1  0.00000000  0.00000000  0.40065800  1
  Pb  Pb15  1  0.00000000  0.00000000  0.79680700  1
  Pb  Pb16  1  0.50000000  0.50000000  0.59934200  1
  Pb  Pb17  1  0.00000000  0.00000000  0.59934200  1
  W  W18  1  0.00000000  0.50000000  0.09936000  1
  W  W19  1  0.50000000  0.00000000  0.90064000  1
  O  O20  1  0.75854000  0.74146000  0.09992100  1
  O  O21  1  0.50000000  0.00000000  0.99743800  1
  O  O22  1  0.50000000  0.00000000  0.20479400  1
  O  O23  1  0.74874800  0.75125200  0.69993900  1
  O  O24  1  0.50000000  0.00000000  0.40189600  1
  O  O25  1  0.50000000  0.00000000  0.60094000  1
  O  O26  1  0.74146000  0.75854000  0.90007900  1
  O  O27  1  0.50000000  0.00000000  0.80070700  1
  O  O28  1  0.75854000  0.25854000  0.09992100  1
  O  O29  1  0.75125200  0.25125200  0.30006100  1
  O  O30  1  0.75000000  0.25000000  0.50000000  1
  O  O31  1  0.74874800  0.24874800  0.69993900  1
  O  O32  1  0.74146000  0.24146000  0.90007900  1
  O  O33  1  0.24146000  0.25854000  0.09992100  1
  O  O34  1  0.00000000  0.50000000  0.00256200  1
  O  O35  1  0.00000000  0.50000000  0.19929300  1
  O  O36  1  0.25125200  0.24874800  0.69993900  1
  O  O37  1  0.25854000  0.24146000  0.90007900  1
  O  O38  1  0.00000000  0.50000000  0.39906000  1
  O  O39  1  0.00000000  0.50000000  0.79520600  1
  O  O40  1  0.75125200  0.74874800  0.30006100  1
  O  O41  1  0.00000000  0.50000000  0.59810400  1
  O  O42  1  0.75000000  0.75000000  0.50000000  1
  O  O43  1  0.24146000  0.74146000  0.09992100  1
  O  O44  1  0.24874800  0.74874800  0.30006100  1
  O  O45  1  0.25000000  0.75000000  0.50000000  1
  O  O46  1  0.25125200  0.75125200  0.69993900  1
  O  O47  1  0.25854000  0.75854000  0.90007900  1
  O  O48  1  0.24874800  0.25125200  0.30006100  1
  O  O49  1  0.25000000  0.25000000  0.50000000  1
