# generated using pymatgen
data_KRb2Mo(OF)3
_symmetry_space_group_name_H-M   'P 1'
_cell_length_a   6.40877800
_cell_length_b   6.40877800
_cell_length_c   9.24059200
_cell_angle_alpha   90.00000000
_cell_angle_beta   90.00000000
_cell_angle_gamma   90.00000000
_symmetry_Int_Tables_number   1
_chemical_formula_structural   KRb2Mo(OF)3
_chemical_formula_sum   'K2 Rb4 Mo2 O6 F6'
_cell_volume   379.53361847
_cell_formula_units_Z   2
loop_
 _symmetry_equiv_pos_site_id
 _symmetry_equiv_pos_as_xyz
  1  'x, y, z'
loop_
 _atom_site_type_symbol
 _atom_site_label
 _atom_site_symmetry_multiplicity
 _atom_site_fract_x
 _atom_site_fract_y
 _atom_site_fract_z
 _atom_site_occupancy
  K  K0  1  0.50000000  0.50000000  0.99256200  1
  K  K1  1  0.00000000  0.00000000  0.49256200  1
  Rb  Rb2  1  0.00000000  0.50000000  0.23874200  1
  Rb  Rb3  1  0.50000000  0.00000000  0.23874200  1
  Rb  Rb4  1  0.50000000  0.00000000  0.73874200  1
  Rb  Rb5  1  0.00000000  0.50000000  0.73874200  1
  Mo  Mo6  1  0.00000000  0.00000000  0.97973200  1
  Mo  Mo7  1  0.50000000  0.50000000  0.47973200  1
  O  O8  1  0.69790700  0.69790700  0.52180100  1
  O  O9  1  0.00000000  0.00000000  0.78693100  1
  O  O10  1  0.19790700  0.80209300  0.02180100  1
  O  O11  1  0.50000000  0.50000000  0.28693100  1
  O  O12  1  0.80209300  0.19790700  0.02180100  1
  O  O13  1  0.30209300  0.30209300  0.52180100  1
  F  F14  1  0.00000000  0.00000000  0.22090900  1
  F  F15  1  0.22435500  0.22435500  0.99879900  1
  F  F16  1  0.27564500  0.72435500  0.49879900  1
  F  F17  1  0.50000000  0.50000000  0.72090900  1
  F  F18  1  0.72435500  0.27564500  0.49879900  1
  F  F19  1  0.77564500  0.77564500  0.99879900  1
