# generated using pymatgen
data_Ti5Fe11O24
_symmetry_space_group_name_H-M   'P 1'
_cell_length_a   7.57083500
_cell_length_b   7.58639101
_cell_length_c   8.94048305
_cell_angle_alpha   113.21450898
_cell_angle_beta   113.23990923
_cell_angle_gamma   85.84733298
_symmetry_Int_Tables_number   1
_chemical_formula_structural   Ti5Fe11O24
_chemical_formula_sum   'Ti5 Fe11 O24'
_cell_volume   431.52697085
_cell_formula_units_Z   1
loop_
 _symmetry_equiv_pos_site_id
 _symmetry_equiv_pos_as_xyz
  1  'x, y, z'
loop_
 _atom_site_type_symbol
 _atom_site_label
 _atom_site_symmetry_multiplicity
 _atom_site_fract_x
 _atom_site_fract_y
 _atom_site_fract_z
 _atom_site_occupancy
  Ti  Ti0  1  0.22168700  0.22028900  0.15252300  1
  Ti  Ti1  1  0.72218300  0.72247900  0.14800600  1
  Ti  Ti2  1  0.96991700  0.47245000  0.64342000  1
  Ti  Ti3  1  0.47342700  0.97096700  0.64741900  1
  Ti  Ti4  1  0.28513500  0.28257700  0.85470200  1
  Fe  Fe5  1  0.53319000  0.53333300  0.35508900  1
  Fe  Fe6  1  0.03401000  0.03209700  0.35863300  1
  Fe  Fe7  1  0.21870800  0.71928000  0.14674400  1
  Fe  Fe8  1  0.28158900  0.78641700  0.85480200  1
  Fe  Fe9  1  0.53283500  0.03090700  0.35285300  1
  Fe  Fe10  1  0.72063600  0.21771900  0.14435700  1
  Fe  Fe11  1  0.78709500  0.28601800  0.85484300  1
  Fe  Fe12  1  0.03277100  0.53617900  0.35662300  1
  Fe  Fe13  1  0.96632200  0.96703600  0.64894600  1
  Fe  Fe14  1  0.46691300  0.46913100  0.64194400  1
  Fe  Fe15  1  0.77724700  0.77758600  0.85366700  1
  O  O16  1  0.52767000  0.72619900  0.23574900  1
  O  O17  1  0.69857200  0.04460700  0.59486800  1
  O  O18  1  0.07031900  0.18952200  0.91070500  1
  O  O19  1  0.78424500  0.47515300  0.73804800  1
  O  O20  1  0.04299000  0.21763400  0.61318000  1
  O  O21  1  0.20289100  0.53592400  0.90540800  1
  O  O22  1  0.02845900  0.22629400  0.23608300  1
  O  O23  1  0.19106100  0.54931600  0.59786300  1
  O  O24  1  0.28601400  0.95960700  0.10286800  1
  O  O25  1  0.56669700  0.69960500  0.91877600  1
  O  O26  1  0.44454000  0.28775200  0.38741300  1
  O  O27  1  0.27662700  0.98033000  0.73506200  1
  O  O28  1  0.71930600  0.02645500  0.24467500  1
  O  O29  1  0.54190800  0.72207700  0.60752500  1
  O  O30  1  0.44784600  0.28964100  0.08322900  1
  O  O31  1  0.69862200  0.04771300  0.90293800  1
  O  O32  1  0.80974400  0.43634000  0.40723200  1
  O  O33  1  0.96240700  0.77283500  0.74428800  1
  O  O34  1  0.79124000  0.46458200  0.11039100  1
  O  O35  1  0.94418000  0.79752300  0.40628700  1
  O  O36  1  0.21646200  0.52406900  0.24344300  1
  O  O37  1  0.95142900  0.78787500  0.09481700  1
  O  O38  1  0.31246700  0.94211800  0.40992000  1
  O  O39  1  0.46064000  0.27236400  0.75466100  1
