# generated using pymatgen
data_BaLa7Mg5Nb3O24
_symmetry_space_group_name_H-M   'P 1'
_cell_length_a   5.71796600
_cell_length_b   9.87422980
_cell_length_c   9.91069221
_cell_angle_alpha   99.72159333
_cell_angle_beta   89.96406979
_cell_angle_gamma   106.76774242
_symmetry_Int_Tables_number   1
_chemical_formula_structural   BaLa7Mg5Nb3O24
_chemical_formula_sum   'Ba1 La7 Mg5 Nb3 O24'
_cell_volume   527.39155819
_cell_formula_units_Z   1
loop_
 _symmetry_equiv_pos_site_id
 _symmetry_equiv_pos_as_xyz
  1  'x, y, z'
loop_
 _atom_site_type_symbol
 _atom_site_label
 _atom_site_symmetry_multiplicity
 _atom_site_fract_x
 _atom_site_fract_y
 _atom_site_fract_z
 _atom_site_occupancy
  Ba  Ba0  1  0.31564200  0.62440800  0.43214100  1
  La  La1  1  0.45351200  0.90494400  0.82456200  1
  La  La2  1  0.94417500  0.87902400  0.32265600  1
  La  La3  1  0.17573300  0.36394500  0.05125200  1
  La  La4  1  0.68064700  0.36564600  0.58697900  1
  La  La5  1  0.79989200  0.59435700  0.93689500  1
  La  La6  1  0.07011300  0.12659900  0.69351900  1
  La  La7  1  0.56346800  0.14202000  0.17359500  1
  Mg  Mg8  1  0.99718200  0.99923800  0.00074600  1
  Mg  Mg9  1  0.50144900  0.00076500  0.50112000  1
  Mg  Mg10  1  0.62463200  0.25088400  0.87582100  1
  Mg  Mg11  1  0.74825100  0.50046400  0.25044200  1
  Mg  Mg12  1  0.25027900  0.50344900  0.75203000  1
  Nb  Nb13  1  0.88008200  0.74752600  0.62955100  1
  Nb  Nb14  1  0.36907900  0.75308500  0.12132000  1
  Nb  Nb15  1  0.12046200  0.24738800  0.37527600  1
  O  O16  1  0.14706600  0.89613100  0.54831900  1
  O  O17  1  0.99839300  0.85551600  0.81754900  1
  O  O18  1  0.79534300  0.65972200  0.42657700  1
  O  O19  1  0.65919900  0.88098600  0.61877400  1
  O  O20  1  0.54920900  0.60499500  0.13682300  1
  O  O21  1  0.40226600  0.37010000  0.28873500  1
  O  O22  1  0.64912400  0.88268700  0.03812900  1
  O  O23  1  0.50787600  0.85839900  0.31271700  1
  O  O24  1  0.25691000  0.65632300  0.92816900  1
  O  O25  1  0.90059800  0.37175500  0.36732500  1
  O  O26  1  0.07080700  0.62704700  0.18952800  1
  O  O27  1  0.16816700  0.89087000  0.11629200  1
  O  O28  1  0.90393500  0.39505400  0.79564100  1
  O  O29  1  0.07920900  0.62075500  0.64944300  1
  O  O30  1  0.84083700  0.11486100  0.89005500  1
  O  O31  1  0.76094000  0.36074900  0.07303400  1
  O  O32  1  0.50218000  0.14864900  0.67486600  1
  O  O33  1  0.40968100  0.38968700  0.86210200  1
  O  O34  1  0.59879100  0.60332200  0.69504400  1
  O  O35  1  0.34472700  0.11512200  0.96249300  1
  O  O36  1  0.32884500  0.11043100  0.37860400  1
  O  O37  1  0.24004500  0.34546200  0.56912300  1
  O  O38  1  0.98956400  0.14445100  0.18336800  1
  O  O39  1  0.85764100  0.10656200  0.46043700  1
