# generated using pymatgen
data_CsMg12Al25Si29O108
_symmetry_space_group_name_H-M   'P 1'
_cell_length_a   9.83964300
_cell_length_b   9.96209829
_cell_length_c   28.36730528
_cell_angle_alpha   89.99614617
_cell_angle_beta   90.00809933
_cell_angle_gamma   119.37983788
_symmetry_Int_Tables_number   1
_chemical_formula_structural   CsMg12Al25Si29O108
_chemical_formula_sum   'Cs1 Mg12 Al25 Si29 O108'
_cell_volume   2423.03156339
_cell_formula_units_Z   1
loop_
 _symmetry_equiv_pos_site_id
 _symmetry_equiv_pos_as_xyz
  1  'x, y, z'
loop_
 _atom_site_type_symbol
 _atom_site_label
 _atom_site_symmetry_multiplicity
 _atom_site_fract_x
 _atom_site_fract_y
 _atom_site_fract_z
 _atom_site_occupancy
  Cs  Cs0  1  0.00472300  0.00945400  0.08334700  1
  Mg  Mg1  1  0.32976700  0.65963600  0.91633900  1
  Mg  Mg2  1  0.33039500  0.66514100  0.41677300  1
  Mg  Mg3  1  0.32881200  0.65849000  0.74999700  1
  Mg  Mg4  1  0.33037900  0.66513000  0.58324800  1
  Mg  Mg5  1  0.32911300  0.65979600  0.25025200  1
  Mg  Mg6  1  0.33165900  0.66400300  0.08333700  1
  Mg  Mg7  1  0.66577300  0.33180500  0.91639700  1
  Mg  Mg8  1  0.66670800  0.33255900  0.75002900  1
  Mg  Mg9  1  0.66712300  0.32986200  0.58315800  1
  Mg  Mg10  1  0.66708800  0.32975500  0.41684700  1
  Mg  Mg11  1  0.66653600  0.33150000  0.25022100  1
  Mg  Mg12  1  0.66184600  0.32330700  0.08327100  1
  Al  Al13  1  0.26635500  0.89878900  0.49999100  1
  Al  Al14  1  0.49995200  0.99987400  0.08344100  1
  Al  Al15  1  0.50018900  0.49684100  0.91672000  1
  Al  Al16  1  0.49926900  0.50001500  0.58355300  1
  Al  Al17  1  0.50105200  0.49764500  0.25066300  1
  Al  Al18  1  0.50071700  0.49706300  0.74956900  1
  Al  Al19  1  0.49929500  0.50004000  0.41647800  1
  Al  Al20  1  0.50092600  0.49744100  0.08318200  1
  Al  Al21  1  0.37748200  0.26652400  0.83315300  1
  Al  Al22  1  0.37901900  0.26493600  0.16708100  1
  Al  Al23  1  0.99675300  0.49757200  0.91625100  1
  Al  Al24  1  0.99593700  0.49692400  0.58263900  1
  Al  Al25  1  0.99657000  0.49722100  0.75013600  1
  Al  Al26  1  0.99592700  0.49694600  0.41739700  1
  Al  Al27  1  0.99665400  0.49694400  0.25006300  1
  Al  Al28  1  0.99650900  0.49735400  0.08337600  1
  Al  Al29  1  0.36479000  0.10286900  0.99971200  1
  Al  Al30  1  0.35979700  0.09921000  0.66643700  1
  Al  Al31  1  0.35929200  0.09931400  0.33381800  1
  Al  Al32  1  0.88610200  0.26460900  0.99961400  1
  Al  Al33  1  0.89046500  0.26664100  0.33322200  1
  Al  Al34  1  0.89052000  0.26687800  0.66693000  1
  Al  Al35  1  0.74139000  0.09992800  0.83307000  1
  Al  Al36  1  0.74092800  0.10019600  0.50002500  1
  Al  Al37  1  0.73868200  0.10345900  0.16695800  1
  Si  Si38  1  0.26783500  0.89663000  0.83307600  1
  Si  Si39  1  0.26721300  0.89282700  0.16696200  1
  Si  Si40  1  0.49987300  0.99955200  0.75015700  1
  Si  Si41  1  0.50224600  0.99988200  0.41614300  1
  Si  Si42  1  0.10349100  0.73045700  0.99987900  1
  Si  Si43  1  0.10150800  0.72822100  0.66639100  1
  Si  Si44  1  0.10156100  0.72833200  0.33370700  1
  Si  Si45  1  0.62542800  0.89309200  0.99970800  1
  Si  Si46  1  0.63125400  0.89734200  0.66762600  1
  Si  Si47  1  0.63156700  0.89725900  0.33264000  1
  Si  Si48  1  0.62644800  0.72863600  0.83321600  1
  Si  Si49  1  0.62458500  0.72924000  0.50000700  1
  Si  Si50  1  0.62659400  0.73033200  0.16680100  1
  Si  Si51  1  0.11119500  0.37936700  0.83325100  1
  Si  Si52  1  0.11170200  0.37903700  0.50000600  1
  Si  Si53  1  0.11204600  0.37891200  0.16681500  1
  Si  Si54  1  0.73262100  0.62802700  0.66600800  1
  Si  Si55  1  0.73388900  0.62919500  0.99955300  1
  Si  Si56  1  0.73285800  0.62811000  0.33412300  1
  Si  Si57  1  0.26841000  0.37944000  0.66664500  1
  Si  Si58  1  0.26672400  0.37913100  0.99987800  1
  Si  Si59  1  0.26826500  0.37954000  0.33341200  1
  Si  Si60  1  0.89735800  0.63114700  0.83321100  1
  Si  Si61  1  0.89222500  0.62683100  0.50000000  1
  Si  Si62  1  0.89581800  0.62956900  0.16711800  1
  Si  Si63  1  0.37615900  0.27020100  0.50000400  1
  Si  Si64  1  0.50018100  0.99935100  0.91566900  1
  Si  Si65  1  0.50220900  0.99982900  0.58392000  1
  Si  Si66  1  0.49927900  0.99934900  0.25070800  1
  O  O67  1  0.21327300  0.91294800  0.00111100  1
  O  O68  1  0.21592200  0.90908600  0.66654100  1
  O  O69  1  0.21577300  0.90909000  0.33355000  1
  O  O70  1  0.08386500  0.76580800  0.83322800  1
  O  O71  1  0.07054800  0.76332200  0.49999500  1
  O  O72  1  0.07950400  0.76959300  0.16832300  1
  O  O73  1  0.35375900  0.86855000  0.88137500  1
  O  O74  1  0.35392000  0.86912000  0.78466500  1
  O  O75  1  0.35890600  0.87074600  0.55142600  1
  O  O76  1  0.35886000  0.87072300  0.44858900  1
  O  O77  1  0.35208500  0.86988600  0.21672700  1
  O  O78  1  0.34739100  0.85685200  0.12082200  1
  O  O79  1  0.51785700  0.86997200  0.94987600  1
  O  O80  1  0.52002800  0.87198700  0.61954300  1
  O  O81  1  0.51642900  0.86848800  0.28462700  1
  O  O82  1  0.51665200  0.86908600  0.71588500  1
  O  O83  1  0.52013100  0.87200300  0.38062100  1
  O  O84  1  0.50952200  0.85697700  0.04583600  1
  O  O85  1  0.13330900  0.65064400  0.71393400  1
  O  O86  1  0.13301900  0.65110700  0.04720200  1
  O  O87  1  0.13415100  0.65181100  0.95248400  1
  O  O88  1  0.13252800  0.64902900  0.38086500  1
  O  O89  1  0.13248900  0.64902400  0.61919100  1
  O  O90  1  0.13323800  0.65052400  0.28618500  1
  O  O91  1  0.69325800  0.90934500  0.83321600  1
  O  O92  1  0.69417100  0.91008200  0.50001000  1
  O  O93  1  0.69940300  0.91299500  0.16558000  1
  O  O94  1  0.69027000  0.76962100  0.99833200  1
  O  O95  1  0.68254300  0.76428900  0.66656100  1
  O  O96  1  0.68276900  0.76422600  0.33355100  1
  O  O97  1  0.14154400  0.49303300  0.87992800  1
  O  O98  1  0.14191400  0.48966300  0.54688500  1
  O  O99  1  0.14153000  0.49264200  0.21333900  1
  O  O100  1  0.14117500  0.49301900  0.78665800  1
  O  O101  1  0.14194100  0.48966400  0.45312800  1
  O  O102  1  0.14028300  0.49041200  0.11982300  1
  O  O103  1  0.51646900  0.65043900  0.88053700  1
  O  O104  1  0.51409700  0.65147500  0.54732200  1
  O  O105  1  0.51761900  0.65178500  0.21421500  1
  O  O106  1  0.51659000  0.65031800  0.78590200  1
  O  O107  1  0.51411400  0.65150000  0.45268700  1
  O  O108  1  0.51793900  0.65130700  0.11947800  1
  O  O109  1  0.35090400  0.49276300  0.95337500  1
  O  O110  1  0.35198100  0.49327200  0.71312500  1
  O  O111  1  0.35019000  0.49292800  0.61978300  1
  O  O112  1  0.35022100  0.49301600  0.38024200  1
  O  O113  1  0.35171200  0.49350000  0.28688900  1
  O  O114  1  0.34998500  0.49065600  0.04684000  1
  O  O115  1  0.77448600  0.69535200  0.83326000  1
  O  O116  1  0.76393600  0.68541200  0.49999600  1
  O  O117  1  0.77549800  0.69750200  0.16627000  1
  O  O118  1  0.08172200  0.31152400  0.00107700  1
  O  O119  1  0.08521300  0.31582200  0.66686800  1
  O  O120  1  0.08511500  0.31573900  0.33315400  1
  O  O121  1  0.92183000  0.69732400  0.00041500  1
  O  O122  1  0.91945200  0.69344600  0.66600500  1
  O  O123  1  0.91959800  0.69356100  0.33405900  1
  O  O124  1  0.23120300  0.31554100  0.83327600  1
  O  O125  1  0.22941400  0.31096600  0.16562400  1
  O  O126  1  0.23851800  0.31792800  0.50000500  1
  O  O127  1  0.65870300  0.52273200  0.95274700  1
  O  O128  1  0.65814400  0.52311500  0.71310600  1
  O  O129  1  0.65640300  0.52093700  0.61878900  1
  O  O130  1  0.65847300  0.52334200  0.28699300  1
  O  O131  1  0.66036400  0.52769700  0.04722900  1
  O  O132  1  0.65643700  0.52091600  0.38128600  1
  O  O133  1  0.49464500  0.34868200  0.88324500  1
  O  O134  1  0.48629500  0.34898900  0.54743600  1
  O  O135  1  0.49433300  0.34814600  0.21738900  1
  O  O136  1  0.49506000  0.34867500  0.78304800  1
  O  O137  1  0.48627300  0.34898200  0.45257200  1
  O  O138  1  0.49373900  0.34944900  0.11691200  1
  O  O139  1  0.86614400  0.52571400  0.88028500  1
  O  O140  1  0.85895800  0.51623800  0.54661700  1
  O  O141  1  0.86437200  0.52313500  0.21395400  1
  O  O142  1  0.86604200  0.52545500  0.78620700  1
  O  O143  1  0.85895600  0.51627800  0.45337900  1
  O  O144  1  0.86788600  0.52813600  0.11942800  1
  O  O145  1  0.30751300  0.24122800  0.99931300  1
  O  O146  1  0.31848100  0.24779500  0.66638800  1
  O  O147  1  0.31830700  0.24800300  0.33364400  1
  O  O148  1  0.30021100  0.06752500  0.83318100  1
  O  O149  1  0.30890800  0.08877800  0.49999700  1
  O  O150  1  0.29414600  0.06353600  0.16565800  1
  O  O151  1  0.85403200  0.34870700  0.71694600  1
  O  O152  1  0.85614600  0.34883000  0.38338200  1
  O  O153  1  0.85435900  0.34883800  0.28330700  1
  O  O154  1  0.85411800  0.34796400  0.94929400  1
  O  O155  1  0.85618700  0.34884600  0.61668900  1
  O  O156  1  0.85597900  0.34943400  0.04978300  1
  O  O157  1  0.48184600  0.12402600  0.61666400  1
  O  O158  1  0.47571500  0.11922500  0.94820500  1
  O  O159  1  0.47757200  0.12016300  0.28380100  1
  O  O160  1  0.47775100  0.11945400  0.71671000  1
  O  O161  1  0.48175100  0.12402900  0.38345100  1
  O  O162  1  0.48610200  0.13399100  0.04765200  1
  O  O163  1  0.64276600  0.12059200  0.88285400  1
  O  O164  1  0.64196100  0.12017200  0.78326100  1
  O  O165  1  0.64497600  0.12252300  0.55053000  1
  O  O166  1  0.64503500  0.12255000  0.44950700  1
  O  O167  1  0.64335100  0.11948100  0.21833700  1
  O  O168  1  0.64796400  0.13397900  0.11899400  1
  O  O169  1  0.93002600  0.24819500  0.83328000  1
  O  O170  1  0.93472400  0.24149500  0.50000700  1
  O  O171  1  0.93368400  0.24143900  0.16735600  1
  O  O172  1  0.76902500  0.06350500  0.00101600  1
  O  O173  1  0.76959100  0.06811900  0.66771000  1
  O  O174  1  0.76974400  0.06801500  0.33244500  1
