# generated using pymatgen
data_Na3SrTiNb3O12
_symmetry_space_group_name_H-M   'P 1'
_cell_length_a   7.92466200
_cell_length_b   7.93043781
_cell_length_c   7.99303995
_cell_angle_alpha   90.11236883
_cell_angle_beta   90.10139437
_cell_angle_gamma   90.12141998
_symmetry_Int_Tables_number   1
_chemical_formula_structural   Na3SrTiNb3O12
_chemical_formula_sum   'Na6 Sr2 Ti2 Nb6 O24'
_cell_volume   502.32801701
_cell_formula_units_Z   2
loop_
 _symmetry_equiv_pos_site_id
 _symmetry_equiv_pos_as_xyz
  1  'x, y, z'
loop_
 _atom_site_type_symbol
 _atom_site_label
 _atom_site_symmetry_multiplicity
 _atom_site_fract_x
 _atom_site_fract_y
 _atom_site_fract_z
 _atom_site_occupancy
  Na  Na0  1  0.74970900  0.74978900  0.25185900  1
  Na  Na1  1  0.75015300  0.75126200  0.75126500  1
  Na  Na2  1  0.24970700  0.75054400  0.75112300  1
  Na  Na3  1  0.75029300  0.24945600  0.24887700  1
  Na  Na4  1  0.24984700  0.24873800  0.24873500  1
  Na  Na5  1  0.25029100  0.25021100  0.74814100  1
  Sr  Sr6  1  0.24977900  0.74956300  0.24823900  1
  Sr  Sr7  1  0.75022100  0.25043700  0.75176100  1
  Ti  Ti8  1  0.00000000  0.50000000  0.00000000  1
  Ti  Ti9  1  0.50000000  0.00000000  0.50000000  1
  Nb  Nb10  1  0.00000000  0.00000000  0.00000000  1
  Nb  Nb11  1  0.00000000  0.00000000  0.50000000  1
  Nb  Nb12  1  0.50000000  0.00000000  0.00000000  1
  Nb  Nb13  1  0.00000000  0.50000000  0.50000000  1
  Nb  Nb14  1  0.50000000  0.50000000  0.00000000  1
  Nb  Nb15  1  0.50000000  0.50000000  0.50000000  1
  O  O16  1  0.51222300  0.00461500  0.74968400  1
  O  O17  1  0.98653500  0.00253100  0.75015200  1
  O  O18  1  0.25003400  0.96096800  0.99083400  1
  O  O19  1  0.74920400  0.97113000  0.49387000  1
  O  O20  1  0.53398800  0.74994500  0.00323000  1
  O  O21  1  0.97018800  0.74922400  0.00524300  1
  O  O22  1  0.46607300  0.75087000  0.50191400  1
  O  O23  1  0.03726600  0.75000000  0.50088600  1
  O  O24  1  0.24922200  0.53517000  0.99372000  1
  O  O25  1  0.74995400  0.53327500  0.49332500  1
  O  O26  1  0.48775600  0.50417600  0.24992300  1
  O  O27  1  0.01127800  0.50242900  0.24936900  1
  O  O28  1  0.98872200  0.49757100  0.75063100  1
  O  O29  1  0.51224400  0.49582400  0.75007700  1
  O  O30  1  0.25004600  0.46672500  0.50667500  1
  O  O31  1  0.75077800  0.46483000  0.00628000  1
  O  O32  1  0.96273400  0.25000000  0.49911400  1
  O  O33  1  0.53392700  0.24913000  0.49808600  1
  O  O34  1  0.02981200  0.25077600  0.99475700  1
  O  O35  1  0.46601200  0.25005500  0.99677000  1
  O  O36  1  0.25079600  0.02887000  0.50613000  1
  O  O37  1  0.74996600  0.03903200  0.00916600  1
  O  O38  1  0.01346500  0.99746900  0.24984800  1
  O  O39  1  0.48777700  0.99538500  0.25031600  1
