# generated using pymatgen
data_TaTi9Al3Zn23O48
_symmetry_space_group_name_H-M   'P 1'
_cell_length_a   6.01688400
_cell_length_b   6.05277219
_cell_length_c   29.52313894
_cell_angle_alpha   90.60583946
_cell_angle_beta   89.95970509
_cell_angle_gamma   119.70068163
_symmetry_Int_Tables_number   1
_chemical_formula_structural   TaTi9Al3Zn23O48
_chemical_formula_sum   'Ta1 Ti9 Al3 Zn23 O48'
_cell_volume   933.87969383
_cell_formula_units_Z   1
loop_
 _symmetry_equiv_pos_site_id
 _symmetry_equiv_pos_as_xyz
  1  'x, y, z'
loop_
 _atom_site_type_symbol
 _atom_site_label
 _atom_site_symmetry_multiplicity
 _atom_site_fract_x
 _atom_site_fract_y
 _atom_site_fract_z
 _atom_site_occupancy
  Ta  Ta0  1  0.99018800  0.49829500  0.56334300  1
  Ti  Ti1  1  0.16757000  0.83321700  0.89582600  1
  Ti  Ti2  1  0.66708400  0.83335500  0.89669000  1
  Ti  Ti3  1  0.83493800  0.16669900  0.72947200  1
  Ti  Ti4  1  0.33616000  0.16844200  0.73061900  1
  Ti  Ti5  1  0.34845900  0.66859000  0.47768700  1
  Ti  Ti6  1  0.15737800  0.83327900  0.39331600  1
  Ti  Ti7  1  0.84020200  0.16367500  0.23132000  1
  Ti  Ti8  1  0.49318900  0.50300200  0.06043000  1
  Ti  Ti9  1  0.66577500  0.33316700  0.14595500  1
  Al  Al10  1  0.66738200  0.83503000  0.39414100  1
  Al  Al11  1  0.33310200  0.16651200  0.22906200  1
  Al  Al12  1  0.99984000  0.49981800  0.06333700  1
  Zn  Zn13  1  0.00282600  0.98376800  0.00251100  1
  Zn  Zn14  1  0.67533300  0.35003000  0.95853300  1
  Zn  Zn15  1  0.16727500  0.33343100  0.89610600  1
  Zn  Zn16  1  0.32307700  0.66341000  0.97983900  1
  Zn  Zn17  1  0.34209900  0.68274300  0.78990800  1
  Zn  Zn18  1  0.83287500  0.66624300  0.72953700  1
  Zn  Zn19  1  0.99814700  0.99948100  0.81285400  1
  Zn  Zn20  1  0.65929600  0.31796000  0.83598500  1
  Zn  Zn21  1  0.02488000  0.01725300  0.62558600  1
  Zn  Zn22  1  0.49684300  0.99907800  0.56338900  1
  Zn  Zn23  1  0.65544500  0.33262900  0.64677500  1
  Zn  Zn24  1  0.49470400  0.49594300  0.56355900  1
  Zn  Zn25  1  0.32315000  0.65391100  0.66875200  1
  Zn  Zn26  1  0.67318800  0.34028400  0.45546100  1
  Zn  Zn27  1  0.16137100  0.33283600  0.39374300  1
  Zn  Zn28  1  0.33205100  0.68382500  0.29110500  1
  Zn  Zn29  1  0.98806500  0.99008900  0.49766700  1
  Zn  Zn30  1  0.83755100  0.66734500  0.23030600  1
  Zn  Zn31  1  0.00218000  0.00115700  0.31219600  1
  Zn  Zn32  1  0.66550300  0.31569500  0.33310000  1
  Zn  Zn33  1  0.00322100  0.01271500  0.12520000  1
  Zn  Zn34  1  0.49683600  0.99962000  0.06161700  1
  Zn  Zn35  1  0.33048100  0.65406500  0.16666800  1
  O  O36  1  0.02551400  0.52847600  0.93347100  1
  O  O37  1  0.49934000  0.53102800  0.93504900  1
  O  O38  1  0.34652800  0.69186000  0.85842400  1
  O  O39  1  0.49151900  0.98681500  0.93279300  1
  O  O40  1  0.69551600  0.86418000  0.76733400  1
  O  O41  1  0.83854100  0.67981700  0.85983300  1
  O  O42  1  0.98809300  0.97503000  0.93398800  1
  O  O43  1  0.83138800  0.13546100  0.85844400  1
  O  O44  1  0.16632100  0.86286200  0.76745400  1
  O  O45  1  0.01204900  0.02487800  0.69279900  1
  O  O46  1  0.15815400  0.32157900  0.76611500  1
  O  O47  1  0.30314600  0.13629500  0.85803200  1
  O  O48  1  0.37082400  0.18537200  0.60201600  1
  O  O49  1  0.50518600  0.01399100  0.69381300  1
  O  O50  1  0.65404700  0.30965900  0.76757800  1
  O  O51  1  0.49400700  0.47248100  0.69261900  1
  O  O52  1  0.85052100  0.19127500  0.59927700  1
  O  O53  1  0.68514000  0.34486200  0.52253400  1
  O  O54  1  0.84978500  0.66426800  0.60057800  1
  O  O55  1  0.96419000  0.46669800  0.69062600  1
  O  O56  1  0.03909200  0.53740800  0.43672500  1
  O  O57  1  0.16662400  0.36275600  0.51705000  1
  O  O58  1  0.31459600  0.65637700  0.60021300  1
  O  O59  1  0.16620000  0.80351300  0.51921400  1
  O  O60  1  0.50315900  0.53970000  0.43520300  1
  O  O61  1  0.34805900  0.68592000  0.35989100  1
  O  O62  1  0.49025900  0.96830500  0.43504100  1
  O  O63  1  0.62833700  0.81645900  0.51916700  1
  O  O64  1  0.68386700  0.86461900  0.26574700  1
  O  O65  1  0.83747700  0.67554600  0.35998900  1
  O  O66  1  0.98169600  0.97627700  0.43070800  1
  O  O67  1  0.82931800  0.12609400  0.35765500  1
  O  O68  1  0.17085700  0.87537100  0.26617600  1
  O  O69  1  0.01726100  0.02477000  0.19278700  1
  O  O70  1  0.16174400  0.32413100  0.26408400  1
  O  O71  1  0.31643000  0.13625200  0.35904200  1
  O  O72  1  0.36923200  0.20027200  0.10500800  1
  O  O73  1  0.51242300  0.03092300  0.18795800  1
  O  O74  1  0.50167900  0.46142500  0.18908600  1
  O  O75  1  0.65221200  0.31288700  0.26403100  1
  O  O76  1  0.83120900  0.20464300  0.10279800  1
  O  O77  1  0.68156400  0.35404100  0.02778000  1
  O  O78  1  0.96404600  0.46632800  0.18668900  1
  O  O79  1  0.82010100  0.63560700  0.10388600  1
  O  O80  1  0.17010200  0.34244700  0.02814500  1
  O  O81  1  0.31704800  0.64163900  0.09918800  1
  O  O82  1  0.16127700  0.79169000  0.02677400  1
  O  O83  1  0.64665700  0.80112200  0.02559900  1
