# generated using pymatgen
data_NaSr8LaTi10O30
_symmetry_space_group_name_H-M   'P 1'
_cell_length_a   5.55176300
_cell_length_b   5.55176300
_cell_length_c   19.65870600
_cell_angle_alpha   90.00000000
_cell_angle_beta   90.00000000
_cell_angle_gamma   90.00000000
_symmetry_Int_Tables_number   1
_chemical_formula_structural   NaSr8LaTi10O30
_chemical_formula_sum   'Na1 Sr8 La1 Ti10 O30'
_cell_volume   605.92205978
_cell_formula_units_Z   1
loop_
 _symmetry_equiv_pos_site_id
 _symmetry_equiv_pos_as_xyz
  1  'x, y, z'
loop_
 _atom_site_type_symbol
 _atom_site_label
 _atom_site_symmetry_multiplicity
 _atom_site_fract_x
 _atom_site_fract_y
 _atom_site_fract_z
 _atom_site_occupancy
  Na  Na0  1  0.00000000  0.00000000  0.00000000  1
  Sr  Sr1  1  0.00000000  0.00000000  0.19914700  1
  Sr  Sr2  1  0.50000000  0.50000000  0.20048100  1
  Sr  Sr3  1  0.50000000  0.50000000  0.40001100  1
  Sr  Sr4  1  0.50000000  0.50000000  0.59998900  1
  Sr  Sr5  1  0.50000000  0.50000000  0.79951900  1
  Sr  Sr6  1  0.00000000  0.00000000  0.39998200  1
  Sr  Sr7  1  0.00000000  0.00000000  0.60001800  1
  Sr  Sr8  1  0.00000000  0.00000000  0.80085300  1
  La  La9  1  0.50000000  0.50000000  0.00000000  1
  Ti  Ti10  1  0.00000000  0.50000000  0.50000000  1
  Ti  Ti11  1  0.00000000  0.50000000  0.29991900  1
  Ti  Ti12  1  0.00000000  0.50000000  0.90095200  1
  Ti  Ti13  1  0.00000000  0.50000000  0.70008100  1
  Ti  Ti14  1  0.00000000  0.50000000  0.09904800  1
  Ti  Ti15  1  0.50000000  0.00000000  0.29991900  1
  Ti  Ti16  1  0.50000000  0.00000000  0.50000000  1
  Ti  Ti17  1  0.50000000  0.00000000  0.90095200  1
  Ti  Ti18  1  0.50000000  0.00000000  0.09904800  1
  Ti  Ti19  1  0.50000000  0.00000000  0.70008100  1
  O  O20  1  0.00000000  0.50000000  0.39999300  1
  O  O21  1  0.00000000  0.50000000  0.80035900  1
  O  O22  1  0.24985600  0.75014400  0.29999000  1
  O  O23  1  0.25001000  0.74999000  0.50000000  1
  O  O24  1  0.24985600  0.75014400  0.70001000  1
  O  O25  1  0.25696500  0.74303500  0.90095400  1
  O  O26  1  0.25696500  0.74303500  0.09904600  1
  O  O27  1  0.50000000  0.00000000  0.39999300  1
  O  O28  1  0.24985600  0.24985600  0.29999000  1
  O  O29  1  0.50000000  0.00000000  0.19964100  1
  O  O30  1  0.25001000  0.25001000  0.50000000  1
  O  O31  1  0.24985600  0.24985600  0.70001000  1
  O  O32  1  0.25696500  0.25696500  0.09904600  1
  O  O33  1  0.50000000  0.00000000  0.80035900  1
  O  O34  1  0.50000000  0.00000000  0.00000000  1
  O  O35  1  0.25696500  0.25696500  0.90095400  1
  O  O36  1  0.50000000  0.00000000  0.60000700  1
  O  O37  1  0.75014400  0.24985600  0.29999000  1
  O  O38  1  0.74999000  0.25001000  0.50000000  1
  O  O39  1  0.75014400  0.24985600  0.70001000  1
  O  O40  1  0.74303500  0.25696500  0.90095400  1
  O  O41  1  0.74303500  0.25696500  0.09904600  1
  O  O42  1  0.75014400  0.75014400  0.29999000  1
  O  O43  1  0.74999000  0.74999000  0.50000000  1
  O  O44  1  0.75014400  0.75014400  0.70001000  1
  O  O45  1  0.74303500  0.74303500  0.90095400  1
  O  O46  1  0.00000000  0.50000000  0.19964100  1
  O  O47  1  0.00000000  0.50000000  0.60000700  1
  O  O48  1  0.74303500  0.74303500  0.09904600  1
  O  O49  1  0.00000000  0.50000000  0.00000000  1
