# generated using pymatgen
data_NaSr2NdTi4O12
_symmetry_space_group_name_H-M   'P 1'
_cell_length_a   5.50411000
_cell_length_b   5.50411000
_cell_length_c   23.65956400
_cell_angle_alpha   90.00000000
_cell_angle_beta   90.00000000
_cell_angle_gamma   90.00000000
_symmetry_Int_Tables_number   1
_chemical_formula_structural   NaSr2NdTi4O12
_chemical_formula_sum   'Na3 Sr6 Nd3 Ti12 O36'
_cell_volume   716.77185955
_cell_formula_units_Z   3
loop_
 _symmetry_equiv_pos_site_id
 _symmetry_equiv_pos_as_xyz
  1  'x, y, z'
loop_
 _atom_site_type_symbol
 _atom_site_label
 _atom_site_symmetry_multiplicity
 _atom_site_fract_x
 _atom_site_fract_y
 _atom_site_fract_z
 _atom_site_occupancy
  Na  Na0  1  0.50000000  0.50000000  0.16586700  1
  Na  Na1  1  0.00000000  0.00000000  0.00000000  1
  Na  Na2  1  0.50000000  0.50000000  0.83413300  1
  Sr  Sr3  1  0.50000000  0.50000000  0.66807700  1
  Sr  Sr4  1  0.00000000  0.00000000  0.50000000  1
  Sr  Sr5  1  0.00000000  0.00000000  0.66771200  1
  Sr  Sr6  1  0.50000000  0.50000000  0.33192300  1
  Sr  Sr7  1  0.50000000  0.50000000  0.50000000  1
  Sr  Sr8  1  0.00000000  0.00000000  0.33228800  1
  Nd  Nd9  1  0.00000000  0.00000000  0.16593900  1
  Nd  Nd10  1  0.50000000  0.50000000  0.00000000  1
  Nd  Nd11  1  0.00000000  0.00000000  0.83406100  1
  Ti  Ti12  1  0.50000000  0.00000000  0.91744300  1
  Ti  Ti13  1  0.50000000  0.00000000  0.08255700  1
  Ti  Ti14  1  0.00000000  0.50000000  0.91744300  1
  Ti  Ti15  1  0.00000000  0.50000000  0.08255700  1
  Ti  Ti16  1  0.50000000  0.00000000  0.58408700  1
  Ti  Ti17  1  0.50000000  0.00000000  0.75273200  1
  Ti  Ti18  1  0.00000000  0.50000000  0.41591300  1
  Ti  Ti19  1  0.00000000  0.50000000  0.58408700  1
  Ti  Ti20  1  0.00000000  0.50000000  0.75273200  1
  Ti  Ti21  1  0.50000000  0.00000000  0.24726800  1
  Ti  Ti22  1  0.50000000  0.00000000  0.41591300  1
  Ti  Ti23  1  0.00000000  0.50000000  0.24726800  1
  O  O24  1  0.00000000  0.50000000  0.16500200  1
  O  O25  1  0.20050200  0.79949800  0.08621400  1
  O  O26  1  0.29929100  0.29929100  0.07923500  1
  O  O27  1  0.50000000  0.00000000  0.00000000  1
  O  O28  1  0.50000000  0.00000000  0.16500200  1
  O  O29  1  0.70070900  0.29929100  0.92076500  1
  O  O30  1  0.70070900  0.70070900  0.07923500  1
  O  O31  1  0.79949800  0.79949800  0.91378600  1
  O  O32  1  0.79949800  0.20050200  0.08621400  1
  O  O33  1  0.00000000  0.50000000  0.83499800  1
  O  O34  1  0.00000000  0.50000000  0.00000000  1
  O  O35  1  0.20799300  0.79200700  0.75483800  1
  O  O36  1  0.20050200  0.20050200  0.91378600  1
  O  O37  1  0.28012800  0.28012800  0.75159700  1
  O  O38  1  0.29929100  0.70070900  0.92076500  1
  O  O39  1  0.50000000  0.00000000  0.66832100  1
  O  O40  1  0.50000000  0.00000000  0.83499800  1
  O  O41  1  0.72444800  0.27555200  0.58432600  1
  O  O42  1  0.71987200  0.71987200  0.75159700  1
  O  O43  1  0.77540100  0.77540100  0.58361400  1
  O  O44  1  0.79200700  0.20799300  0.75483800  1
  O  O45  1  0.00000000  0.50000000  0.50000000  1
  O  O46  1  0.00000000  0.50000000  0.66832100  1
  O  O47  1  0.22459900  0.77540100  0.41638600  1
  O  O48  1  0.22459900  0.22459900  0.58361400  1
  O  O49  1  0.27555200  0.27555200  0.41567400  1
  O  O50  1  0.27555200  0.72444800  0.58432600  1
  O  O51  1  0.50000000  0.00000000  0.33167900  1
  O  O52  1  0.50000000  0.00000000  0.50000000  1
  O  O53  1  0.71987200  0.28012800  0.24840300  1
  O  O54  1  0.72444800  0.72444800  0.41567400  1
  O  O55  1  0.79200700  0.79200700  0.24516200  1
  O  O56  1  0.77540100  0.22459900  0.41638600  1
  O  O57  1  0.00000000  0.50000000  0.33167900  1
  O  O58  1  0.20799300  0.20799300  0.24516200  1
  O  O59  1  0.28012800  0.71987200  0.24840300  1
