# generated using pymatgen
data_CaH4(N3O)2
_symmetry_space_group_name_H-M   'P 1'
_cell_length_a   6.18134500
_cell_length_b   7.93971400
_cell_length_c   12.16505059
_cell_angle_alpha   67.54799534
_cell_angle_beta   90.00000000
_cell_angle_gamma   90.00000000
_symmetry_Int_Tables_number   1
_chemical_formula_structural   CaH4(N3O)2
_chemical_formula_sum   'Ca4 H16 N24 O8'
_cell_volume   551.78211495
_cell_formula_units_Z   4
loop_
 _symmetry_equiv_pos_site_id
 _symmetry_equiv_pos_as_xyz
  1  'x, y, z'
loop_
 _atom_site_type_symbol
 _atom_site_label
 _atom_site_symmetry_multiplicity
 _atom_site_fract_x
 _atom_site_fract_y
 _atom_site_fract_z
 _atom_site_occupancy
  Ca  Ca0  1  0.25051500  0.32230700  0.48761600  1
  Ca  Ca1  1  0.24948500  0.32230700  0.98761600  1
  Ca  Ca2  1  0.74948500  0.67769300  0.51238400  1
  Ca  Ca3  1  0.75051500  0.67769300  0.01238400  1
  H  H4  1  0.30128100  0.57664400  0.62086300  1
  H  H5  1  0.19871900  0.57664400  0.12086300  1
  H  H6  1  0.69871900  0.42335600  0.37913700  1
  H  H7  1  0.80128100  0.42335600  0.87913700  1
  H  H8  1  0.45194300  0.41164500  0.69640100  1
  H  H9  1  0.04805700  0.41164500  0.19640100  1
  H  H10  1  0.54805700  0.58835500  0.30359900  1
  H  H11  1  0.95194300  0.58835500  0.80359900  1
  H  H12  1  0.97155700  0.31416800  0.68965700  1
  H  H13  1  0.52844300  0.31416800  0.18965700  1
  H  H14  1  0.02844300  0.68583200  0.31034300  1
  H  H15  1  0.47155700  0.68583200  0.81034300  1
  H  H16  1  0.79946800  0.27744400  0.60640000  1
  H  H17  1  0.70053200  0.27744400  0.10640000  1
  H  H18  1  0.20053200  0.72255600  0.39360000  1
  H  H19  1  0.29946800  0.72255600  0.89360000  1
  N  N20  1  0.93045000  0.29992100  0.35423600  1
  N  N21  1  0.56955000  0.29992100  0.85423600  1
  N  N22  1  0.06955000  0.70007900  0.64576400  1
  N  N23  1  0.43045000  0.70007900  0.14576400  1
  N  N24  1  0.58171700  0.14014200  0.59883100  1
  N  N25  1  0.91828300  0.14014200  0.09883100  1
  N  N26  1  0.41828300  0.85985800  0.40116900  1
  N  N27  1  0.08171700  0.85985800  0.90116900  1
  N  N28  1  0.89974000  0.14160800  0.37373400  1
  N  N29  1  0.60026000  0.14160800  0.87373400  1
  N  N30  1  0.10026000  0.85839200  0.62626600  1
  N  N31  1  0.39974000  0.85839200  0.12626600  1
  N  N32  1  0.59635200  0.97984100  0.62979600  1
  N  N33  1  0.90364800  0.97984100  0.12979600  1
  N  N34  1  0.40364800  0.02015900  0.37020400  1
  N  N35  1  0.09635200  0.02015900  0.87020400  1
  N  N36  1  0.87491000  0.98774000  0.39114500  1
  N  N37  1  0.62509000  0.98774000  0.89114500  1
  N  N38  1  0.12509000  0.01226000  0.60885500  1
  N  N39  1  0.37491000  0.01226000  0.10885500  1
  N  N40  1  0.60809300  0.81940300  0.66054000  1
  N  N41  1  0.89190700  0.81940300  0.16054000  1
  N  N42  1  0.39190700  0.18059700  0.33946000  1
  N  N43  1  0.10809300  0.18059700  0.83946000  1
  O  O44  1  0.41224300  0.48925300  0.61314400  1
  O  O45  1  0.08775700  0.48925300  0.11314400  1
  O  O46  1  0.58775700  0.51074700  0.38685600  1
  O  O47  1  0.91224300  0.51074700  0.88685600  1
  O  O48  1  0.91237900  0.36800600  0.60776100  1
  O  O49  1  0.58762100  0.36800600  0.10776100  1
  O  O50  1  0.08762100  0.63199400  0.39223900  1
  O  O51  1  0.41237900  0.63199400  0.89223900  1
