# generated using pymatgen
data_BeH8(NF2)2
_symmetry_space_group_name_H-M   'P 1'
_cell_length_a   5.85544000
_cell_length_b   7.98925500
_cell_length_c   11.05489100
_cell_angle_alpha   90.00000000
_cell_angle_beta   90.00000000
_cell_angle_gamma   90.00000000
_symmetry_Int_Tables_number   1
_chemical_formula_structural   BeH8(NF2)2
_chemical_formula_sum   'Be4 H32 N8 F16'
_cell_volume   517.15447036
_cell_formula_units_Z   4
loop_
 _symmetry_equiv_pos_site_id
 _symmetry_equiv_pos_as_xyz
  1  'x, y, z'
loop_
 _atom_site_type_symbol
 _atom_site_label
 _atom_site_symmetry_multiplicity
 _atom_site_fract_x
 _atom_site_fract_y
 _atom_site_fract_z
 _atom_site_occupancy
  Be  Be0  1  0.25000000  0.94368200  0.16128600  1
  Be  Be1  1  0.25000000  0.44368200  0.33871400  1
  Be  Be2  1  0.75000000  0.05631800  0.83871400  1
  Be  Be3  1  0.75000000  0.55631800  0.66128600  1
  H  H4  1  0.25000000  0.54611500  0.08481200  1
  H  H5  1  0.25000000  0.04611500  0.41518800  1
  H  H6  1  0.75000000  0.45388500  0.91518800  1
  H  H7  1  0.75000000  0.95388500  0.58481200  1
  H  H8  1  0.25000000  0.24082900  0.14690500  1
  H  H9  1  0.25000000  0.74082900  0.35309500  1
  H  H10  1  0.75000000  0.75917100  0.85309500  1
  H  H11  1  0.75000000  0.25917100  0.64690500  1
  H  H12  1  0.11247200  0.15803800  0.03149400  1
  H  H13  1  0.38752800  0.65803800  0.46850600  1
  H  H14  1  0.61247200  0.84196200  0.96850600  1
  H  H15  1  0.88752800  0.34196200  0.53149400  1
  H  H16  1  0.88752800  0.84196200  0.96850600  1
  H  H17  1  0.61247200  0.34196200  0.53149400  1
  H  H18  1  0.38752800  0.15803800  0.03149400  1
  H  H19  1  0.11247200  0.65803800  0.46850600  1
  H  H20  1  0.25000000  0.50225800  0.71954500  1
  H  H21  1  0.25000000  0.00225800  0.78045500  1
  H  H22  1  0.75000000  0.49774200  0.28045500  1
  H  H23  1  0.75000000  0.99774200  0.21954500  1
  H  H24  1  0.25000000  0.48856300  0.87331900  1
  H  H25  1  0.25000000  0.98856300  0.62668100  1
  H  H26  1  0.75000000  0.51143700  0.12668100  1
  H  H27  1  0.75000000  0.01143700  0.37331900  1
  H  H28  1  0.10778000  0.34410200  0.79379900  1
  H  H29  1  0.39222000  0.84410200  0.70620100  1
  H  H30  1  0.60778000  0.65589800  0.20620100  1
  H  H31  1  0.89222000  0.15589800  0.29379900  1
  H  H32  1  0.89222000  0.65589800  0.20620100  1
  H  H33  1  0.60778000  0.15589800  0.29379900  1
  H  H34  1  0.39222000  0.34410200  0.79379900  1
  H  H35  1  0.10778000  0.84410200  0.70620100  1
  N  N36  1  0.25000000  0.14114100  0.08852200  1
  N  N37  1  0.25000000  0.64114100  0.41147800  1
  N  N38  1  0.75000000  0.85885900  0.91147800  1
  N  N39  1  0.75000000  0.35885900  0.58852200  1
  N  N40  1  0.25000000  0.42033400  0.79154000  1
  N  N41  1  0.25000000  0.92033400  0.70846000  1
  N  N42  1  0.75000000  0.57966600  0.20846000  1
  N  N43  1  0.75000000  0.07966600  0.29154000  1
  F  F44  1  0.02405500  0.34990400  0.36373900  1
  F  F45  1  0.47594500  0.84990400  0.13626100  1
  F  F46  1  0.52405500  0.65009600  0.63626100  1
  F  F47  1  0.97594500  0.15009600  0.86373900  1
  F  F48  1  0.97594500  0.65009600  0.63626100  1
  F  F49  1  0.52405500  0.15009600  0.86373900  1
  F  F50  1  0.47594500  0.34990400  0.36373900  1
  F  F51  1  0.02405500  0.84990400  0.13626100  1
  F  F52  1  0.25000000  0.97968500  0.30359700  1
  F  F53  1  0.25000000  0.47968500  0.19640300  1
  F  F54  1  0.75000000  0.02031500  0.69640300  1
  F  F55  1  0.75000000  0.52031500  0.80359700  1
  F  F56  1  0.25000000  0.58875600  0.99828000  1
  F  F57  1  0.25000000  0.08875600  0.50172000  1
  F  F58  1  0.75000000  0.41124400  0.00172000  1
  F  F59  1  0.75000000  0.91124400  0.49828000  1
