# generated using pymatgen
data_Na6ZnH4(S2O9)2
_symmetry_space_group_name_H-M   'P 1'
_cell_length_a   6.13316798
_cell_length_b   6.91434971
_cell_length_c   10.26015439
_cell_angle_alpha   70.23091540
_cell_angle_beta   77.18340148
_cell_angle_gamma   74.79164423
_symmetry_Int_Tables_number   1
_chemical_formula_structural   Na6ZnH4(S2O9)2
_chemical_formula_sum   'Na6 Zn1 H4 S4 O18'
_cell_volume   390.85043608
_cell_formula_units_Z   1
loop_
 _symmetry_equiv_pos_site_id
 _symmetry_equiv_pos_as_xyz
  1  'x, y, z'
loop_
 _atom_site_type_symbol
 _atom_site_label
 _atom_site_symmetry_multiplicity
 _atom_site_fract_x
 _atom_site_fract_y
 _atom_site_fract_z
 _atom_site_occupancy
  Na  Na0  1  0.44011294  0.29205706  0.89323187  1
  Na  Na1  1  0.55988706  0.70794294  0.10676813  1
  Na  Na2  1  0.95824941  0.78421052  0.66814186  1
  Na  Na3  1  0.04175059  0.21578948  0.33185814  1
  Na  Na4  1  0.39130443  0.26161659  0.53655131  1
  Na  Na5  1  0.60869557  0.73838341  0.46344869  1
  Zn  Zn6  1  0.00000000  0.00000000  0.00000000  1
  H  H7  1  0.99105559  0.36788066  0.86553510  1
  H  H8  1  0.00894441  0.63211934  0.13446490  1
  H  H9  1  0.91253302  0.35612117  0.03111274  1
  H  H10  1  0.08746698  0.64387883  0.96888726  1
  S  S11  1  0.87548582  0.26658888  0.67470795  1
  S  S12  1  0.12451418  0.73341112  0.32529205  1
  S  S13  1  0.44582846  0.79465519  0.80082834  1
  S  S14  1  0.55417154  0.20534481  0.19917166  1
  O  O15  1  0.82329101  0.11696082  0.81830522  1
  O  O16  1  0.17670899  0.88303918  0.18169478  1
  O  O17  1  0.01241400  0.14493085  0.57869904  1
  O  O18  1  0.98758600  0.85506915  0.42130096  1
  O  O19  1  0.01274505  0.41058298  0.68414095  1
  O  O20  1  0.98725495  0.58941702  0.31585905  1
  O  O21  1  0.65328883  0.38626594  0.62664369  1
  O  O22  1  0.34671117  0.61373406  0.37335631  1
  O  O23  1  0.63512166  0.64779210  0.87357149  1
  O  O24  1  0.36487834  0.35220790  0.12642851  1
  O  O25  1  0.53629570  0.90117976  0.65397723  1
  O  O26  1  0.46370430  0.09882024  0.34602277  1
  O  O27  1  0.33415375  0.95816673  0.87604647  1
  O  O28  1  0.66584625  0.04183327  0.12395353  1
  O  O29  1  0.27026959  0.67691554  0.80292141  1
  O  O30  1  0.72973041  0.32308446  0.19707859  1
  O  O31  1  0.03372973  0.30273711  0.96174184  1
  O  O32  1  0.96627027  0.69726289  0.03825816  1
