# generated using pymatgen
data_GeH10(N2F3)2
_symmetry_space_group_name_H-M   'P 1'
_cell_length_a   5.34970800
_cell_length_b   6.07869800
_cell_length_c   11.85603829
_cell_angle_alpha   70.38860441
_cell_angle_beta   90.00000000
_cell_angle_gamma   90.00000000
_symmetry_Int_Tables_number   1
_chemical_formula_structural   GeH10(N2F3)2
_chemical_formula_sum   'Ge2 H20 N8 F12'
_cell_volume   363.18412844
_cell_formula_units_Z   2
loop_
 _symmetry_equiv_pos_site_id
 _symmetry_equiv_pos_as_xyz
  1  'x, y, z'
loop_
 _atom_site_type_symbol
 _atom_site_label
 _atom_site_symmetry_multiplicity
 _atom_site_fract_x
 _atom_site_fract_y
 _atom_site_fract_z
 _atom_site_occupancy
  Ge  Ge0  1  0.00000000  0.00000000  0.00000000  1
  Ge  Ge1  1  0.50000000  0.00000000  0.50000000  1
  H  H2  1  0.02218900  0.73624800  0.83075000  1
  H  H3  1  0.47781100  0.73624800  0.33075000  1
  H  H4  1  0.97781100  0.26375200  0.16925000  1
  H  H5  1  0.52218900  0.26375200  0.66925000  1
  H  H6  1  0.97554000  0.57337800  0.73998900  1
  H  H7  1  0.52446000  0.57337800  0.23998900  1
  H  H8  1  0.02446000  0.42662200  0.26001100  1
  H  H9  1  0.47554000  0.42662200  0.76001100  1
  H  H10  1  0.84583900  0.84002100  0.70682200  1
  H  H11  1  0.65416100  0.84002100  0.20682200  1
  H  H12  1  0.15416100  0.15997900  0.29317800  1
  H  H13  1  0.34583900  0.15997900  0.79317800  1
  H  H14  1  0.59113800  0.72089200  0.86970800  1
  H  H15  1  0.90886200  0.72089200  0.36970800  1
  H  H16  1  0.40886200  0.27910800  0.13029200  1
  H  H17  1  0.09113800  0.27910800  0.63029200  1
  H  H18  1  0.72276500  0.46076200  0.91661200  1
  H  H19  1  0.77723500  0.46076200  0.41661200  1
  H  H20  1  0.27723500  0.53923800  0.08338800  1
  H  H21  1  0.22276500  0.53923800  0.58338800  1
  N  N22  1  0.89188000  0.69129900  0.77735500  1
  N  N23  1  0.60812000  0.69129900  0.27735500  1
  N  N24  1  0.10812000  0.30870100  0.22264500  1
  N  N25  1  0.39188000  0.30870100  0.72264500  1
  N  N26  1  0.66570900  0.59226900  0.84116700  1
  N  N27  1  0.83429100  0.59226900  0.34116700  1
  N  N28  1  0.33429100  0.40773100  0.15883300  1
  N  N29  1  0.16570900  0.40773100  0.65883300  1
  F  F30  1  0.85395400  0.71381400  0.05657700  1
  F  F31  1  0.64604600  0.71381400  0.55657700  1
  F  F32  1  0.14604600  0.28618600  0.94342300  1
  F  F33  1  0.35395400  0.28618600  0.44342300  1
  F  F34  1  0.20027300  0.92347500  0.13186100  1
  F  F35  1  0.29972700  0.92347500  0.63186100  1
  F  F36  1  0.79972700  0.07652500  0.86813900  1
  F  F37  1  0.70027300  0.07652500  0.36813900  1
  F  F38  1  0.76628900  0.11867800  0.08235000  1
  F  F39  1  0.73371100  0.11867800  0.58235000  1
  F  F40  1  0.23371100  0.88132200  0.91765000  1
  F  F41  1  0.26628900  0.88132200  0.41765000  1
