# generated using pymatgen
data_BaNaP3(HO2)6
_symmetry_space_group_name_H-M   'P 1'
_cell_length_a   7.11901000
_cell_length_b   9.12104797
_cell_length_c   10.08112736
_cell_angle_alpha   116.10757727
_cell_angle_beta   84.67436345
_cell_angle_gamma   105.29894012
_symmetry_Int_Tables_number   1
_chemical_formula_structural   BaNaP3(HO2)6
_chemical_formula_sum   'Ba2 Na2 P6 H12 O24'
_cell_volume   566.77165721
_cell_formula_units_Z   2
loop_
 _symmetry_equiv_pos_site_id
 _symmetry_equiv_pos_as_xyz
  1  'x, y, z'
loop_
 _atom_site_type_symbol
 _atom_site_label
 _atom_site_symmetry_multiplicity
 _atom_site_fract_x
 _atom_site_fract_y
 _atom_site_fract_z
 _atom_site_occupancy
  Ba  Ba0  1  0.95705800  0.23733300  0.19295100  1
  Ba  Ba1  1  0.04294200  0.76266700  0.80704900  1
  Na  Na2  1  0.21882800  0.63102400  0.12956800  1
  Na  Na3  1  0.78117200  0.36897600  0.87043200  1
  P  P4  1  0.85700300  0.69195800  0.41810900  1
  P  P5  1  0.14299700  0.30804200  0.58189100  1
  P  P6  1  0.80062300  0.77354700  0.17797900  1
  P  P7  1  0.19937700  0.22645300  0.82202100  1
  P  P8  1  0.54449200  0.47274900  0.19960700  1
  P  P9  1  0.45550800  0.52725100  0.80039300  1
  H  H10  1  0.47358800  0.99077000  0.31397600  1
  H  H11  1  0.52641200  0.00923000  0.68602400  1
  H  H12  1  0.26290500  0.01654800  0.35314900  1
  H  H13  1  0.73709500  0.98345200  0.64685100  1
  H  H14  1  0.29167700  0.99318000  0.13978000  1
  H  H15  1  0.70832300  0.00682000  0.86022000  1
  H  H16  1  0.65560900  0.90323900  0.95695400  1
  H  H17  1  0.34439100  0.09676100  0.04304600  1
  H  H18  1  0.76921500  0.31001600  0.52059400  1
  H  H19  1  0.23078500  0.68998400  0.47940600  1
  H  H20  1  0.60010200  0.34376800  0.46065200  1
  H  H21  1  0.39989800  0.65623200  0.53934800  1
  O  O22  1  0.85945000  0.82144100  0.34735800  1
  O  O23  1  0.14055000  0.17855900  0.65264200  1
  O  O24  1  0.00662500  0.59317600  0.34322700  1
  O  O25  1  0.99337500  0.40682400  0.65677300  1
  O  O26  1  0.13919100  0.21184800  0.41800800  1
  O  O27  1  0.86080900  0.78815200  0.58199200  1
  O  O28  1  0.59504900  0.63075300  0.15464800  1
  O  O29  1  0.40495100  0.36924700  0.84535200  1
  O  O30  1  0.94409300  0.69102900  0.07056300  1
  O  O31  1  0.05590700  0.30897100  0.92943700  1
  O  O32  1  0.75443400  0.92483800  0.18076800  1
  O  O33  1  0.24556600  0.07516200  0.81923200  1
  O  O34  1  0.63721200  0.56646600  0.36840300  1
  O  O35  1  0.36278800  0.43353400  0.63159700  1
  O  O36  1  0.64797900  0.34062100  0.10312400  1
  O  O37  1  0.35202100  0.65937900  0.89687600  1
  O  O38  1  0.32765800  0.43131000  0.21025900  1
  O  O39  1  0.67234200  0.56869000  0.78974100  1
  O  O40  1  0.33648800  0.93932500  0.28140700  1
  O  O41  1  0.66351200  0.06067500  0.71859300  1
  O  O42  1  0.23731600  0.02394500  0.07071500  1
  O  O43  1  0.76268400  0.97605500  0.92928500  1
  O  O44  1  0.68550100  0.26712100  0.43185900  1
  O  O45  1  0.31449900  0.73287900  0.56814100  1
