# generated using pymatgen
data_ReSbH4O7
_symmetry_space_group_name_H-M   'P 1'
_cell_length_a   5.77674000
_cell_length_b   11.96335800
_cell_length_c   18.51661000
_cell_angle_alpha   90.00000000
_cell_angle_beta   90.00000000
_cell_angle_gamma   90.00000000
_symmetry_Int_Tables_number   1
_chemical_formula_structural   ReSbH4O7
_chemical_formula_sum   'Re8 Sb8 H32 O56'
_cell_volume   1279.66826478
_cell_formula_units_Z   8
loop_
 _symmetry_equiv_pos_site_id
 _symmetry_equiv_pos_as_xyz
  1  'x, y, z'
loop_
 _atom_site_type_symbol
 _atom_site_label
 _atom_site_symmetry_multiplicity
 _atom_site_fract_x
 _atom_site_fract_y
 _atom_site_fract_z
 _atom_site_occupancy
  Re  Re0  1  0.00630800  0.37382100  0.07996900  1
  Re  Re1  1  0.50630800  0.62617900  0.42003100  1
  Re  Re2  1  0.99369200  0.12617900  0.57996900  1
  Re  Re3  1  0.49369200  0.87382100  0.92003100  1
  Re  Re4  1  0.99369200  0.62617900  0.92003100  1
  Re  Re5  1  0.49369200  0.37382100  0.57996900  1
  Re  Re6  1  0.00630800  0.87382100  0.42003100  1
  Re  Re7  1  0.50630800  0.12617900  0.07996900  1
  Sb  Sb8  1  0.02512000  0.15750900  0.91084700  1
  Sb  Sb9  1  0.52512000  0.84249100  0.58915300  1
  Sb  Sb10  1  0.97488000  0.34249100  0.41084700  1
  Sb  Sb11  1  0.47488000  0.65750900  0.08915300  1
  Sb  Sb12  1  0.97488000  0.84249100  0.08915300  1
  Sb  Sb13  1  0.47488000  0.15750900  0.41084700  1
  Sb  Sb14  1  0.02512000  0.65750900  0.58915300  1
  Sb  Sb15  1  0.52512000  0.34249100  0.91084700  1
  H  H16  1  0.99059900  0.01066700  0.78687200  1
  H  H17  1  0.49059900  0.98933300  0.71312800  1
  H  H18  1  0.00940100  0.48933300  0.28687200  1
  H  H19  1  0.50940100  0.51066700  0.21312800  1
  H  H20  1  0.00940100  0.98933300  0.21312800  1
  H  H21  1  0.50940100  0.01066700  0.28687200  1
  H  H22  1  0.99059900  0.51066700  0.71312800  1
  H  H23  1  0.49059900  0.48933300  0.78687200  1
  H  H24  1  0.79840900  0.10900400  0.78231400  1
  H  H25  1  0.29840900  0.89099600  0.71768600  1
  H  H26  1  0.20159100  0.39099600  0.28231400  1
  H  H27  1  0.70159100  0.60900400  0.21768600  1
  H  H28  1  0.20159100  0.89099600  0.21768600  1
  H  H29  1  0.70159100  0.10900400  0.28231400  1
  H  H30  1  0.79840900  0.60900400  0.71768600  1
  H  H31  1  0.29840900  0.39099600  0.78231400  1
  H  H32  1  0.43007400  0.15399400  0.79198600  1
  H  H33  1  0.93007400  0.84600600  0.70801400  1
  H  H34  1  0.56992600  0.34600600  0.29198600  1
  H  H35  1  0.06992600  0.65399400  0.20801400  1
  H  H36  1  0.56992600  0.84600600  0.20801400  1
  H  H37  1  0.06992600  0.15399400  0.29198600  1
  H  H38  1  0.43007400  0.65399400  0.70801400  1
  H  H39  1  0.93007400  0.34600600  0.79198600  1
  H  H40  1  0.52572300  0.17890500  0.71250500  1
  H  H41  1  0.02572300  0.82109500  0.78749500  1
  H  H42  1  0.47427700  0.32109500  0.21250500  1
  H  H43  1  0.97427700  0.67890500  0.28749500  1
  H  H44  1  0.47427700  0.82109500  0.28749500  1
  H  H45  1  0.97427700  0.17890500  0.21250500  1
  H  H46  1  0.52572300  0.67890500  0.78749500  1
  H  H47  1  0.02572300  0.32109500  0.71250500  1
  O  O48  1  0.12636600  0.29371800  0.00808600  1
  O  O49  1  0.62636600  0.70628200  0.49191400  1
  O  O50  1  0.87363400  0.20628200  0.50808600  1
  O  O51  1  0.37363400  0.79371800  0.99191400  1
  O  O52  1  0.87363400  0.70628200  0.99191400  1
  O  O53  1  0.37363400  0.29371800  0.50808600  1
  O  O54  1  0.12636600  0.79371800  0.49191400  1
  O  O55  1  0.62636600  0.20628200  0.00808600  1
  O  O56  1  0.21729100  0.45881800  0.11948400  1
  O  O57  1  0.71729100  0.54118200  0.38051600  1
  O  O58  1  0.78270900  0.04118200  0.61948400  1
  O  O59  1  0.28270900  0.95881800  0.88051600  1
  O  O60  1  0.78270900  0.54118200  0.88051600  1
  O  O61  1  0.28270900  0.45881800  0.61948400  1
  O  O62  1  0.21729100  0.95881800  0.38051600  1
  O  O63  1  0.71729100  0.04118200  0.11948400  1
  O  O64  1  0.88563100  0.28730800  0.14614000  1
  O  O65  1  0.38563100  0.71269200  0.35386000  1
  O  O66  1  0.11436900  0.21269200  0.64614000  1
  O  O67  1  0.61436900  0.78730800  0.85386000  1
  O  O68  1  0.11436900  0.71269200  0.85386000  1
  O  O69  1  0.61436900  0.28730800  0.64614000  1
  O  O70  1  0.88563100  0.78730800  0.35386000  1
  O  O71  1  0.38563100  0.21269200  0.14614000  1
  O  O72  1  0.78561200  0.45941400  0.04616800  1
  O  O73  1  0.28561200  0.54058600  0.45383200  1
  O  O74  1  0.21438800  0.04058600  0.54616800  1
  O  O75  1  0.71438800  0.95941400  0.95383200  1
  O  O76  1  0.21438800  0.54058600  0.95383200  1
  O  O77  1  0.71438800  0.45941400  0.54616800  1
  O  O78  1  0.78561200  0.95941400  0.45383200  1
  O  O79  1  0.28561200  0.04058600  0.04616800  1
  O  O80  1  0.81858500  0.27931400  0.87065700  1
  O  O81  1  0.31858500  0.72068600  0.62934300  1
  O  O82  1  0.18141500  0.22068600  0.37065700  1
  O  O83  1  0.68141500  0.77931400  0.12934300  1
  O  O84  1  0.18141500  0.72068600  0.12934300  1
  O  O85  1  0.68141500  0.27931400  0.37065700  1
  O  O86  1  0.81858500  0.77931400  0.62934300  1
  O  O87  1  0.31858500  0.22068600  0.87065700  1
  O  O88  1  0.95945100  0.09052900  0.80034600  1
  O  O89  1  0.45945100  0.90947100  0.69965400  1
  O  O90  1  0.04054900  0.40947100  0.30034600  1
  O  O91  1  0.54054900  0.59052900  0.19965400  1
  O  O92  1  0.04054900  0.90947100  0.19965400  1
  O  O93  1  0.54054900  0.09052900  0.30034600  1
  O  O94  1  0.95945100  0.59052900  0.69965400  1
  O  O95  1  0.45945100  0.40947100  0.80034600  1
  O  O96  1  0.52574000  0.12280200  0.75172800  1
  O  O97  1  0.02574000  0.87719800  0.74827200  1
  O  O98  1  0.47426000  0.37719800  0.25172800  1
  O  O99  1  0.97426000  0.62280200  0.24827200  1
  O  O100  1  0.47426000  0.87719800  0.24827200  1
  O  O101  1  0.97426000  0.12280200  0.25172800  1
  O  O102  1  0.52574000  0.62280200  0.74827200  1
  O  O103  1  0.02574000  0.37719800  0.75172800  1
