# generated using pymatgen
data_YSeF
_symmetry_space_group_name_H-M   'P 1'
_cell_length_a   4.12969200
_cell_length_b   10.02729200
_cell_length_c   13.18603866
_cell_angle_alpha   75.04470081
_cell_angle_beta   90.00000000
_cell_angle_gamma   90.00000000
_symmetry_Int_Tables_number   1
_chemical_formula_structural   YSeF
_chemical_formula_sum   'Y8 Se8 F8'
_cell_volume   527.53356080
_cell_formula_units_Z   8
loop_
 _symmetry_equiv_pos_site_id
 _symmetry_equiv_pos_as_xyz
  1  'x, y, z'
loop_
 _atom_site_type_symbol
 _atom_site_label
 _atom_site_symmetry_multiplicity
 _atom_site_fract_x
 _atom_site_fract_y
 _atom_site_fract_z
 _atom_site_occupancy
  Y  Y0  1  0.25000000  0.54452800  0.12649800  1
  Y  Y1  1  0.75000000  0.45547200  0.87350200  1
  Y  Y2  1  0.25000000  0.03743100  0.12158000  1
  Y  Y3  1  0.75000000  0.96256900  0.87842000  1
  Y  Y4  1  0.25000000  0.88348700  0.63696600  1
  Y  Y5  1  0.75000000  0.11651300  0.36303400  1
  Y  Y6  1  0.25000000  0.37763900  0.61445700  1
  Y  Y7  1  0.75000000  0.62236100  0.38554300  1
  Se  Se8  1  0.25000000  0.75535300  0.23594800  1
  Se  Se9  1  0.75000000  0.24464700  0.76405200  1
  Se  Se10  1  0.25000000  0.32854900  0.01843300  1
  Se  Se11  1  0.75000000  0.67145100  0.98156700  1
  Se  Se12  1  0.25000000  0.58561600  0.73109400  1
  Se  Se13  1  0.75000000  0.41438400  0.26890600  1
  Se  Se14  1  0.25000000  0.16035800  0.51236800  1
  Se  Se15  1  0.75000000  0.83964200  0.48763200  1
  F  F16  1  0.25000000  0.09516400  0.29363500  1
  F  F17  1  0.75000000  0.90483600  0.70636500  1
  F  F18  1  0.25000000  0.55460600  0.45779300  1
  F  F19  1  0.75000000  0.44539400  0.54220700  1
  F  F20  1  0.25000000  0.93679000  0.79502000  1
  F  F21  1  0.75000000  0.06321000  0.20498000  1
  F  F22  1  0.25000000  0.98561200  0.96061500  1
  F  F23  1  0.75000000  0.01438800  0.03938500  1
