# generated using pymatgen
data_K3P2H7O10
_symmetry_space_group_name_H-M   'P 1'
_cell_length_a   10.48250100
_cell_length_b   6.18876200
_cell_length_c   17.06464226
_cell_angle_alpha   89.65172354
_cell_angle_beta   90.00000000
_cell_angle_gamma   90.00000000
_symmetry_Int_Tables_number   1
_chemical_formula_structural   K3P2H7O10
_chemical_formula_sum   'K12 P8 H28 O40'
_cell_volume   1107.02609626
_cell_formula_units_Z   4
loop_
 _symmetry_equiv_pos_site_id
 _symmetry_equiv_pos_as_xyz
  1  'x, y, z'
loop_
 _atom_site_type_symbol
 _atom_site_label
 _atom_site_symmetry_multiplicity
 _atom_site_fract_x
 _atom_site_fract_y
 _atom_site_fract_z
 _atom_site_occupancy
  K  K0  1  0.12568600  0.39960300  0.89450200  1
  K  K1  1  0.62568600  0.60039700  0.60549800  1
  K  K2  1  0.87431400  0.60039700  0.10549800  1
  K  K3  1  0.37431400  0.39960300  0.39450200  1
  K  K4  1  0.98783700  0.65520400  0.69405500  1
  K  K5  1  0.48783700  0.34479600  0.80594500  1
  K  K6  1  0.01216300  0.34479600  0.30594500  1
  K  K7  1  0.51216300  0.65520400  0.19405500  1
  K  K8  1  0.11404500  0.20726400  0.54831900  1
  K  K9  1  0.61404500  0.79273600  0.95168100  1
  K  K10  1  0.88595500  0.79273600  0.45168100  1
  K  K11  1  0.38595500  0.20726400  0.04831900  1
  P  P12  1  0.79654400  0.12591700  0.64828700  1
  P  P13  1  0.29654400  0.87408300  0.85171300  1
  P  P14  1  0.20345600  0.87408300  0.35171300  1
  P  P15  1  0.70345600  0.12591700  0.14828700  1
  P  P16  1  0.85285500  0.16216000  0.82112300  1
  P  P17  1  0.35285500  0.83784000  0.67887700  1
  P  P18  1  0.14714500  0.83784000  0.17887700  1
  P  P19  1  0.64714500  0.16216000  0.32112300  1
  H  H20  1  0.58073400  0.06589100  0.65827300  1
  H  H21  1  0.08073400  0.93410900  0.84172700  1
  H  H22  1  0.41926600  0.93410900  0.34172700  1
  H  H23  1  0.91926600  0.06589100  0.15827300  1
  H  H24  1  0.68786800  0.81246000  0.78610100  1
  H  H25  1  0.18786800  0.18754000  0.71389900  1
  H  H26  1  0.31213200  0.18754000  0.21389900  1
  H  H27  1  0.81213200  0.81246000  0.28610100  1
  H  H28  1  0.74525800  0.57548700  0.78949000  1
  H  H29  1  0.24525800  0.42451300  0.71051000  1
  H  H30  1  0.25474200  0.42451300  0.21051000  1
  H  H31  1  0.75474200  0.57548700  0.28949000  1
  H  H32  1  0.66562500  0.25196200  0.92530500  1
  H  H33  1  0.16562500  0.74803800  0.57469500  1
  H  H34  1  0.33437500  0.74803800  0.07469500  1
  H  H35  1  0.83437500  0.25196200  0.42530500  1
  H  H36  1  0.63687700  0.33165900  0.01381800  1
  H  H37  1  0.13687700  0.66834100  0.48618200  1
  H  H38  1  0.36312300  0.66834100  0.98618200  1
  H  H39  1  0.86312300  0.33165900  0.51381800  1
  H  H40  1  0.90830200  0.80872800  0.92213600  1
  H  H41  1  0.40830200  0.19127200  0.57786400  1
  H  H42  1  0.09169800  0.19127200  0.07786400  1
  H  H43  1  0.59169800  0.80872800  0.42213600  1
  H  H44  1  0.86933600  0.56883400  0.90356700  1
  H  H45  1  0.36933600  0.43116600  0.59643300  1
  H  H46  1  0.13066400  0.43116600  0.09643300  1
  H  H47  1  0.63066400  0.56883400  0.40356700  1
  O  O48  1  0.65244600  0.17663700  0.67123800  1
  O  O49  1  0.15244600  0.82336300  0.82876200  1
  O  O50  1  0.34755400  0.82336300  0.32876200  1
  O  O51  1  0.84755400  0.17663700  0.17123800  1
  O  O52  1  0.85294600  0.33322900  0.61515400  1
  O  O53  1  0.35294600  0.66677100  0.88484600  1
  O  O54  1  0.14705400  0.66677100  0.38484600  1
  O  O55  1  0.64705400  0.33322900  0.11515400  1
  O  O56  1  0.81080800  0.92376800  0.59998000  1
  O  O57  1  0.31080800  0.07623200  0.90002000  1
  O  O58  1  0.18919200  0.07623200  0.40002000  1
  O  O59  1  0.68919200  0.92376800  0.09998000  1
  O  O60  1  0.86769400  0.06905800  0.73090500  1
  O  O61  1  0.36769400  0.93094200  0.76909500  1
  O  O62  1  0.13230600  0.93094200  0.26909500  1
  O  O63  1  0.63230600  0.06905800  0.23090500  1
  O  O64  1  0.72024800  0.09148400  0.84890800  1
  O  O65  1  0.22024800  0.90851600  0.65109200  1
  O  O66  1  0.27975200  0.90851600  0.15109200  1
  O  O67  1  0.77975200  0.09148400  0.34890800  1
  O  O68  1  0.96148800  0.04607100  0.86489300  1
  O  O69  1  0.46148800  0.95392900  0.63510700  1
  O  O70  1  0.03851200  0.95392900  0.13510700  1
  O  O71  1  0.53851200  0.04607100  0.36489300  1
  O  O72  1  0.87179200  0.40806700  0.81758700  1
  O  O73  1  0.37179200  0.59193300  0.68241300  1
  O  O74  1  0.12820800  0.59193300  0.18241300  1
  O  O75  1  0.62820800  0.40806700  0.31758700  1
  O  O76  1  0.66956600  0.66164100  0.77254700  1
  O  O77  1  0.16956600  0.33835900  0.72745300  1
  O  O78  1  0.33043400  0.33835900  0.22745300  1
  O  O79  1  0.83043400  0.66164100  0.27254700  1
  O  O80  1  0.60798800  0.34144700  0.95824900  1
  O  O81  1  0.10798800  0.65855300  0.54175100  1
  O  O82  1  0.39201200  0.65855300  0.04175100  1
  O  O83  1  0.89201200  0.34144700  0.45824900  1
  O  O84  1  0.87741200  0.67352200  0.94718700  1
  O  O85  1  0.37741200  0.32647800  0.55281300  1
  O  O86  1  0.12258800  0.32647800  0.05281300  1
  O  O87  1  0.62258800  0.67352200  0.44718700  1
