# generated using pymatgen
data_K2CuH4(Cl2O)2
_symmetry_space_group_name_H-M   'P 1'
_cell_length_a   7.47384200
_cell_length_b   7.47384200
_cell_length_c   7.91125100
_cell_angle_alpha   90.00000000
_cell_angle_beta   90.00000000
_cell_angle_gamma   90.00000000
_symmetry_Int_Tables_number   1
_chemical_formula_structural   K2CuH4(Cl2O)2
_chemical_formula_sum   'K4 Cu2 H8 Cl8 O4'
_cell_volume   441.90914440
_cell_formula_units_Z   2
loop_
 _symmetry_equiv_pos_site_id
 _symmetry_equiv_pos_as_xyz
  1  'x, y, z'
loop_
 _atom_site_type_symbol
 _atom_site_label
 _atom_site_symmetry_multiplicity
 _atom_site_fract_x
 _atom_site_fract_y
 _atom_site_fract_z
 _atom_site_occupancy
  K  K0  1  0.00000000  0.50000000  0.25000000  1
  K  K1  1  0.50000000  0.00000000  0.75000000  1
  K  K2  1  0.00000000  0.50000000  0.75000000  1
  K  K3  1  0.50000000  0.00000000  0.25000000  1
  Cu  Cu4  1  0.50000000  0.50000000  0.50000000  1
  Cu  Cu5  1  0.00000000  0.00000000  0.00000000  1
  H  H6  1  0.42375100  0.57624900  0.17812500  1
  H  H7  1  0.57624900  0.42375100  0.17812500  1
  H  H8  1  0.07624900  0.07624900  0.67812500  1
  H  H9  1  0.92375100  0.92375100  0.67812500  1
  H  H10  1  0.57624900  0.42375100  0.82187500  1
  H  H11  1  0.42375100  0.57624900  0.82187500  1
  H  H12  1  0.92375100  0.92375100  0.32187500  1
  H  H13  1  0.07624900  0.07624900  0.32187500  1
  Cl  Cl14  1  0.28109500  0.71890500  0.50000000  1
  Cl  Cl15  1  0.71890500  0.28109500  0.50000000  1
  Cl  Cl16  1  0.21890500  0.21890500  0.00000000  1
  Cl  Cl17  1  0.78109500  0.78109500  0.00000000  1
  Cl  Cl18  1  0.28009300  0.71990700  0.00000000  1
  Cl  Cl19  1  0.71990700  0.28009300  0.00000000  1
  Cl  Cl20  1  0.21990700  0.21990700  0.50000000  1
  Cl  Cl21  1  0.78009300  0.78009300  0.50000000  1
  O  O22  1  0.50000000  0.50000000  0.25179500  1
  O  O23  1  0.00000000  0.00000000  0.75179500  1
  O  O24  1  0.50000000  0.50000000  0.74820500  1
  O  O25  1  0.00000000  0.00000000  0.24820500  1
