# generated using pymatgen
data_NaH4IO2
_symmetry_space_group_name_H-M   'P 1'
_cell_length_a   6.05549600
_cell_length_b   7.16763075
_cell_length_c   7.28453299
_cell_angle_alpha   117.59642554
_cell_angle_beta   81.82257715
_cell_angle_gamma   114.96264702
_symmetry_Int_Tables_number   1
_chemical_formula_structural   NaH4IO2
_chemical_formula_sum   'Na2 H8 I2 O4'
_cell_volume   253.46966009
_cell_formula_units_Z   2
loop_
 _symmetry_equiv_pos_site_id
 _symmetry_equiv_pos_as_xyz
  1  'x, y, z'
loop_
 _atom_site_type_symbol
 _atom_site_label
 _atom_site_symmetry_multiplicity
 _atom_site_fract_x
 _atom_site_fract_y
 _atom_site_fract_z
 _atom_site_occupancy
  Na  Na0  1  0.32589300  0.14521000  0.48149800  1
  Na  Na1  1  0.67410700  0.85479000  0.51850200  1
  H  H2  1  0.59594200  0.87779000  0.15510100  1
  H  H3  1  0.40405800  0.12221000  0.84489900  1
  H  H4  1  0.78813700  0.12451700  0.28617800  1
  H  H5  1  0.21186300  0.87548300  0.71382200  1
  H  H6  1  0.95595500  0.74838200  0.14905000  1
  H  H7  1  0.04404500  0.25161800  0.85095000  1
  H  H8  1  0.03444400  0.65803000  0.27639600  1
  H  H9  1  0.96555600  0.34197000  0.72360400  1
  I  I10  1  0.23407900  0.37446000  0.21997100  1
  I  I11  1  0.76592100  0.62554000  0.78002900  1
  O  O12  1  0.62632100  0.01157500  0.29354300  1
  O  O13  1  0.37367900  0.98842500  0.70645700  1
  O  O14  1  0.99388600  0.78434600  0.29185400  1
  O  O15  1  0.00611400  0.21565400  0.70814600  1
