# generated using pymatgen
data_HPbClO
_symmetry_space_group_name_H-M   'P 1'
_cell_length_a   4.06968700
_cell_length_b   7.18535500
_cell_length_c   9.95751700
_cell_angle_alpha   90.00000000
_cell_angle_beta   90.00000000
_cell_angle_gamma   90.00000000
_symmetry_Int_Tables_number   1
_chemical_formula_structural   HPbClO
_chemical_formula_sum   'H4 Pb4 Cl4 O4'
_cell_volume   291.17916426
_cell_formula_units_Z   4
loop_
 _symmetry_equiv_pos_site_id
 _symmetry_equiv_pos_as_xyz
  1  'x, y, z'
loop_
 _atom_site_type_symbol
 _atom_site_label
 _atom_site_symmetry_multiplicity
 _atom_site_fract_x
 _atom_site_fract_y
 _atom_site_fract_z
 _atom_site_occupancy
  H  H0  1  0.25000000  0.71940800  0.61263400  1
  H  H1  1  0.25000000  0.21940800  0.88736600  1
  H  H2  1  0.75000000  0.28059200  0.38736600  1
  H  H3  1  0.75000000  0.78059200  0.11263400  1
  Pb  Pb4  1  0.25000000  0.29845800  0.58904300  1
  Pb  Pb5  1  0.25000000  0.79845800  0.91095700  1
  Pb  Pb6  1  0.75000000  0.70154200  0.41095700  1
  Pb  Pb7  1  0.75000000  0.20154200  0.08904300  1
  Cl  Cl8  1  0.25000000  0.05885600  0.32203500  1
  Cl  Cl9  1  0.25000000  0.55885600  0.17796500  1
  Cl  Cl10  1  0.75000000  0.94114400  0.67796500  1
  Cl  Cl11  1  0.75000000  0.44114400  0.82203500  1
  O  O12  1  0.25000000  0.63007100  0.53876700  1
  O  O13  1  0.25000000  0.13007100  0.96123300  1
  O  O14  1  0.75000000  0.36992900  0.46123300  1
  O  O15  1  0.75000000  0.86992900  0.03876700  1
