# generated using pymatgen
data_H2O
_symmetry_space_group_name_H-M   'P 1'
_cell_length_a   6.69524200
_cell_length_b   6.69524200
_cell_length_c   6.74765900
_cell_angle_alpha   90.00000000
_cell_angle_beta   90.00000000
_cell_angle_gamma   90.00000000
_symmetry_Int_Tables_number   1
_chemical_formula_structural   H2O
_chemical_formula_sum   'H24 O12'
_cell_volume   302.47235342
_cell_formula_units_Z   12
loop_
 _symmetry_equiv_pos_site_id
 _symmetry_equiv_pos_as_xyz
  1  'x, y, z'
loop_
 _atom_site_type_symbol
 _atom_site_label
 _atom_site_symmetry_multiplicity
 _atom_site_fract_x
 _atom_site_fract_y
 _atom_site_fract_z
 _atom_site_occupancy
  H  H0  1  0.48459400  0.16387500  0.53566900  1
  H  H1  1  0.51540600  0.83612500  0.03566900  1
  H  H2  1  0.66387500  0.01540600  0.28566900  1
  H  H3  1  0.33612500  0.98459400  0.78566900  1
  H  H4  1  0.83612500  0.51540600  0.96433100  1
  H  H5  1  0.16387500  0.48459400  0.46433100  1
  H  H6  1  0.01540600  0.66387500  0.71433100  1
  H  H7  1  0.98459400  0.33612500  0.21433100  1
  H  H8  1  0.61731100  0.34248300  0.45698100  1
  H  H9  1  0.38268900  0.65751700  0.95698100  1
  H  H10  1  0.84248300  0.88268900  0.20698100  1
  H  H11  1  0.15751700  0.11731100  0.70698100  1
  H  H12  1  0.65751700  0.38268900  0.04301900  1
  H  H13  1  0.34248300  0.61731100  0.54301900  1
  H  H14  1  0.88268900  0.84248300  0.79301900  1
  H  H15  1  0.11731100  0.15751700  0.29301900  1
  H  H16  1  0.80174000  0.13373700  0.64176900  1
  H  H17  1  0.19826000  0.86626300  0.14176900  1
  H  H18  1  0.63373700  0.69826000  0.39176900  1
  H  H19  1  0.36626300  0.30174000  0.89176900  1
  H  H20  1  0.86626300  0.19826000  0.85823100  1
  H  H21  1  0.13373700  0.80174000  0.35823100  1
  H  H22  1  0.69826000  0.63373700  0.60823100  1
  H  H23  1  0.30174000  0.36626300  0.10823100  1
  O  O24  1  0.89826200  0.10173800  0.75000000  1
  O  O25  1  0.10173800  0.89826200  0.25000000  1
  O  O26  1  0.60173800  0.60173800  0.50000000  1
  O  O27  1  0.39826200  0.39826200  0.00000000  1
  O  O28  1  0.61213800  0.19474600  0.46511000  1
  O  O29  1  0.38786200  0.80525400  0.96511000  1
  O  O30  1  0.69474600  0.88786200  0.21511000  1
  O  O31  1  0.30525400  0.11213800  0.71511000  1
  O  O32  1  0.80525400  0.38786200  0.03489000  1
  O  O33  1  0.19474600  0.61213800  0.53489000  1
  O  O34  1  0.88786200  0.69474600  0.78489000  1
  O  O35  1  0.11213800  0.30525400  0.28489000  1
