# generated using pymatgen
data_CsH2CO3
_symmetry_space_group_name_H-M   'P 1'
_cell_length_a   10.98858800
_cell_length_b   6.27326500
_cell_length_c   6.27623636
_cell_angle_alpha   68.98987850
_cell_angle_beta   90.00000000
_cell_angle_gamma   90.00000000
_symmetry_Int_Tables_number   1
_chemical_formula_structural   CsH2CO3
_chemical_formula_sum   'Cs4 H8 C4 O12'
_cell_volume   403.88441495
_cell_formula_units_Z   4
loop_
 _symmetry_equiv_pos_site_id
 _symmetry_equiv_pos_as_xyz
  1  'x, y, z'
loop_
 _atom_site_type_symbol
 _atom_site_label
 _atom_site_symmetry_multiplicity
 _atom_site_fract_x
 _atom_site_fract_y
 _atom_site_fract_z
 _atom_site_occupancy
  Cs  Cs0  1  0.61598000  0.10967800  0.70889300  1
  Cs  Cs1  1  0.11598000  0.89032200  0.79110700  1
  Cs  Cs2  1  0.38402000  0.89032200  0.29110700  1
  Cs  Cs3  1  0.88402000  0.10967800  0.20889300  1
  H  H4  1  0.63806700  0.66289500  0.39073500  1
  H  H5  1  0.13806700  0.33710500  0.10926500  1
  H  H6  1  0.36193300  0.33710500  0.60926500  1
  H  H7  1  0.86193300  0.66289500  0.89073500  1
  H  H8  1  0.73297900  0.65139300  0.58356200  1
  H  H9  1  0.23297900  0.34860700  0.91643800  1
  H  H10  1  0.26702100  0.34860700  0.41643800  1
  H  H11  1  0.76702100  0.65139300  0.08356200  1
  C  C12  1  0.93973800  0.47222400  0.57462300  1
  C  C13  1  0.43973800  0.52777600  0.92537700  1
  C  C14  1  0.06026200  0.52777600  0.42537700  1
  C  C15  1  0.56026200  0.47222400  0.07462300  1
  O  O16  1  0.89482100  0.27488300  0.63133600  1
  O  O17  1  0.39482100  0.72511700  0.86866400  1
  O  O18  1  0.10517900  0.72511700  0.36866400  1
  O  O19  1  0.60517900  0.27488300  0.13133600  1
  O  O20  1  0.89526500  0.63708300  0.62547400  1
  O  O21  1  0.39526500  0.36291700  0.87452600  1
  O  O22  1  0.10473500  0.36291700  0.37452600  1
  O  O23  1  0.60473500  0.63708300  0.12547400  1
  O  O24  1  0.64731900  0.69278300  0.53430200  1
  O  O25  1  0.14731900  0.30721700  0.96569800  1
  O  O26  1  0.35268100  0.30721700  0.46569800  1
  O  O27  1  0.85268100  0.69278300  0.03430200  1
