# generated using pymatgen
data_MgH2(SeO3)2
_symmetry_space_group_name_H-M   'P 1'
_cell_length_a   5.32655500
_cell_length_b   5.68938100
_cell_length_c   10.80082567
_cell_angle_alpha   59.05645194
_cell_angle_beta   90.00000000
_cell_angle_gamma   90.00000000
_symmetry_Int_Tables_number   1
_chemical_formula_structural   MgH2(SeO3)2
_chemical_formula_sum   'Mg2 H4 Se4 O12'
_cell_volume   280.73128006
_cell_formula_units_Z   2
loop_
 _symmetry_equiv_pos_site_id
 _symmetry_equiv_pos_as_xyz
  1  'x, y, z'
loop_
 _atom_site_type_symbol
 _atom_site_label
 _atom_site_symmetry_multiplicity
 _atom_site_fract_x
 _atom_site_fract_y
 _atom_site_fract_z
 _atom_site_occupancy
  Mg  Mg0  1  0.50000000  0.00000000  0.50000000  1
  Mg  Mg1  1  0.00000000  0.00000000  0.00000000  1
  H  H2  1  0.04542700  0.70141500  0.52841500  1
  H  H3  1  0.45457300  0.70141500  0.02841500  1
  H  H4  1  0.95457300  0.29858500  0.47158500  1
  H  H5  1  0.54542700  0.29858500  0.97158500  1
  Se  Se6  1  0.31978400  0.31674300  0.66483300  1
  Se  Se7  1  0.18021600  0.31674300  0.16483300  1
  Se  Se8  1  0.68021600  0.68325700  0.33516700  1
  Se  Se9  1  0.81978400  0.68325700  0.83516700  1
  O  O10  1  0.08250300  0.17008000  0.78290900  1
  O  O11  1  0.41749700  0.17008000  0.28290900  1
  O  O12  1  0.91749700  0.82992000  0.21709100  1
  O  O13  1  0.58250400  0.82992000  0.71709100  1
  O  O14  1  0.24682900  0.25015000  0.53079400  1
  O  O15  1  0.25317100  0.25015000  0.03079400  1
  O  O16  1  0.75317100  0.74985000  0.46920600  1
  O  O17  1  0.74682900  0.74985000  0.96920600  1
  O  O18  1  0.22109400  0.68120500  0.56995900  1
  O  O19  1  0.27890600  0.68120500  0.06995900  1
  O  O20  1  0.77890600  0.31879500  0.43004100  1
  O  O21  1  0.72109400  0.31879500  0.93004100  1
