# generated using pymatgen
data_HfP2H4O9
_symmetry_space_group_name_H-M   'P 1'
_cell_length_a   5.29225800
_cell_length_b   9.15528100
_cell_length_c   16.69169952
_cell_angle_alpha   69.79607826
_cell_angle_beta   90.00000000
_cell_angle_gamma   90.00000000
_symmetry_Int_Tables_number   1
_chemical_formula_structural   HfP2H4O9
_chemical_formula_sum   'Hf4 P8 H16 O36'
_cell_volume   758.98528259
_cell_formula_units_Z   4
loop_
 _symmetry_equiv_pos_site_id
 _symmetry_equiv_pos_as_xyz
  1  'x, y, z'
loop_
 _atom_site_type_symbol
 _atom_site_label
 _atom_site_symmetry_multiplicity
 _atom_site_fract_x
 _atom_site_fract_y
 _atom_site_fract_z
 _atom_site_occupancy
  Hf  Hf0  1  0.75496100  0.25954100  0.98463900  1
  Hf  Hf1  1  0.25496100  0.74045900  0.51536100  1
  Hf  Hf2  1  0.24503900  0.74045900  0.01536100  1
  Hf  Hf3  1  0.74503900  0.25954100  0.48463900  1
  P  P4  1  0.25059100  0.03459200  0.10206600  1
  P  P5  1  0.75059100  0.96540800  0.39793400  1
  P  P6  1  0.74940900  0.96540800  0.89793400  1
  P  P7  1  0.24940900  0.03459200  0.60206600  1
  P  P8  1  0.74529500  0.50109800  0.11002800  1
  P  P9  1  0.24529500  0.49890200  0.38997200  1
  P  P10  1  0.25470500  0.49890200  0.88997200  1
  P  P11  1  0.75470500  0.50109800  0.61002800  1
  H  H12  1  0.25057000  0.08431100  0.22391900  1
  H  H13  1  0.75057000  0.91568900  0.27608100  1
  H  H14  1  0.74943000  0.91568900  0.77608100  1
  H  H15  1  0.24943000  0.08431100  0.72391900  1
  H  H16  1  0.59827700  0.34691300  0.23183900  1
  H  H17  1  0.09827700  0.65308700  0.26816100  1
  H  H18  1  0.40172300  0.65308700  0.76816100  1
  H  H19  1  0.90172300  0.34691300  0.73183900  1
  H  H20  1  0.59178300  0.70558400  0.25977800  1
  H  H21  1  0.09178300  0.29441600  0.24022200  1
  H  H22  1  0.40821700  0.29441600  0.74022200  1
  H  H23  1  0.90821700  0.70558400  0.75977800  1
  H  H24  1  0.74097800  0.79312500  0.17823300  1
  H  H25  1  0.24097800  0.20687500  0.32176700  1
  H  H26  1  0.25902200  0.20687500  0.82176700  1
  H  H27  1  0.75902200  0.79312500  0.67823300  1
  O  O28  1  0.30422800  0.87770900  0.09053600  1
  O  O29  1  0.80422800  0.12229100  0.40946400  1
  O  O30  1  0.69577200  0.12229100  0.90946400  1
  O  O31  1  0.19577200  0.87770900  0.59053600  1
  O  O32  1  0.98676800  0.09495500  0.06754600  1
  O  O33  1  0.48676800  0.90504500  0.43245400  1
  O  O34  1  0.01323200  0.90504500  0.93245400  1
  O  O35  1  0.51323200  0.09495500  0.56754600  1
  O  O36  1  0.44906600  0.15807400  0.05728200  1
  O  O37  1  0.94906600  0.84192600  0.44271800  1
  O  O38  1  0.55093400  0.84192600  0.94271800  1
  O  O39  1  0.05093400  0.15807400  0.55728200  1
  O  O40  1  0.26284400  0.99579200  0.20117300  1
  O  O41  1  0.76284400  0.00420800  0.29882700  1
  O  O42  1  0.73715600  0.00420800  0.79882700  1
  O  O43  1  0.23715600  0.99579200  0.70117300  1
  O  O44  1  0.94809700  0.62737400  0.09505900  1
  O  O45  1  0.44809700  0.37262600  0.40494100  1
  O  O46  1  0.05190300  0.37262600  0.90494100  1
  O  O47  1  0.55190300  0.62737400  0.59505900  1
  O  O48  1  0.47918700  0.56988100  0.09350100  1
  O  O49  1  0.97918700  0.43011900  0.40649900  1
  O  O50  1  0.52081300  0.43011900  0.90649900  1
  O  O51  1  0.02081300  0.56988100  0.59350100  1
  O  O52  1  0.80539400  0.39438100  0.05929200  1
  O  O53  1  0.30539400  0.60561900  0.44070800  1
  O  O54  1  0.19460600  0.60561900  0.94070800  1
  O  O55  1  0.69460600  0.39438100  0.55929200  1
  O  O56  1  0.76025300  0.39962900  0.20926800  1
  O  O57  1  0.26025300  0.60037100  0.29073200  1
  O  O58  1  0.23974700  0.60037100  0.79073200  1
  O  O59  1  0.73974700  0.39962900  0.70926800  1
  O  O60  1  0.75301900  0.76087700  0.24031900  1
  O  O61  1  0.25301900  0.23912300  0.25968100  1
  O  O62  1  0.24698100  0.23912300  0.75968100  1
  O  O63  1  0.74698100  0.76087700  0.74031900  1
