# generated using pymatgen
data_NaP(HO2)2
_symmetry_space_group_name_H-M   'P 1'
_cell_length_a   6.38944200
_cell_length_b   6.74172185
_cell_length_c   9.66801860
_cell_angle_alpha   93.59049791
_cell_angle_beta   103.17612456
_cell_angle_gamma   107.19844824
_symmetry_Int_Tables_number   1
_chemical_formula_structural   NaP(HO2)2
_chemical_formula_sum   'Na4 P4 H8 O16'
_cell_volume   383.55974448
_cell_formula_units_Z   4
loop_
 _symmetry_equiv_pos_site_id
 _symmetry_equiv_pos_as_xyz
  1  'x, y, z'
loop_
 _atom_site_type_symbol
 _atom_site_label
 _atom_site_symmetry_multiplicity
 _atom_site_fract_x
 _atom_site_fract_y
 _atom_site_fract_z
 _atom_site_occupancy
  Na  Na0  1  0.57793800  0.17808500  0.87370600  1
  Na  Na1  1  0.42206200  0.82191500  0.12629400  1
  Na  Na2  1  0.75975200  0.44291600  0.59577800  1
  Na  Na3  1  0.24024800  0.55708400  0.40422200  1
  P  P4  1  0.75499000  0.73257800  0.90972900  1
  P  P5  1  0.24501000  0.26742200  0.09027100  1
  P  P6  1  0.01316100  0.10137300  0.78705000  1
  P  P7  1  0.98683900  0.89862700  0.21295000  1
  H  H8  1  0.28554500  0.64756100  0.73077800  1
  H  H9  1  0.71445500  0.35243900  0.26922200  1
  H  H10  1  0.16070500  0.79300800  0.65931300  1
  H  H11  1  0.83929500  0.20699200  0.34068700  1
  H  H12  1  0.30190600  0.22015200  0.57714400  1
  H  H13  1  0.69809400  0.77984800  0.42285600  1
  H  H14  1  0.67022200  0.86540000  0.56864700  1
  H  H15  1  0.32977800  0.13460000  0.43135300  1
  O  O16  1  0.95773900  0.87896900  0.84908800  1
  O  O17  1  0.04226100  0.12103100  0.15091200  1
  O  O18  1  0.58272300  0.84029700  0.92022600  1
  O  O19  1  0.41727700  0.15970300  0.07977400  1
  O  O20  1  0.68178100  0.51831900  0.82854700  1
  O  O21  1  0.31821900  0.48168100  0.17145300  1
  O  O22  1  0.20887100  0.10709600  0.72370500  1
  O  O23  1  0.79112900  0.89290400  0.27629500  1
  O  O24  1  0.80054400  0.12892800  0.69840600  1
  O  O25  1  0.19945600  0.87107200  0.30159400  1
  O  O26  1  0.09597100  0.27474900  0.92991100  1
  O  O27  1  0.90402900  0.72525100  0.07008900  1
  O  O28  1  0.17505400  0.65287500  0.64313600  1
  O  O29  1  0.82494600  0.34712500  0.35686400  1
  O  O30  1  0.64102300  0.73356400  0.50652300  1
  O  O31  1  0.35897700  0.26643600  0.49347700  1
