# generated using pymatgen
data_H2Pb4SO8
_symmetry_space_group_name_H-M   'P 1'
_cell_length_a   6.48021100
_cell_length_b   7.59734065
_cell_length_c   10.54401144
_cell_angle_alpha   104.42441574
_cell_angle_beta   100.97801740
_cell_angle_gamma   88.15264699
_symmetry_Int_Tables_number   1
_chemical_formula_structural   H2Pb4SO8
_chemical_formula_sum   'H4 Pb8 S2 O16'
_cell_volume   493.47981228
_cell_formula_units_Z   2
loop_
 _symmetry_equiv_pos_site_id
 _symmetry_equiv_pos_as_xyz
  1  'x, y, z'
loop_
 _atom_site_type_symbol
 _atom_site_label
 _atom_site_symmetry_multiplicity
 _atom_site_fract_x
 _atom_site_fract_y
 _atom_site_fract_z
 _atom_site_occupancy
  H  H0  1  0.46196400  0.83440500  0.70034300  1
  H  H1  1  0.53803600  0.16559500  0.29965700  1
  H  H2  1  0.15124000  0.74330200  0.67737500  1
  H  H3  1  0.84876000  0.25669800  0.32262500  1
  Pb  Pb4  1  0.22730000  0.61791800  0.97464700  1
  Pb  Pb5  1  0.77270000  0.38208200  0.02535300  1
  Pb  Pb6  1  0.24111700  0.11804100  0.99468900  1
  Pb  Pb7  1  0.75888300  0.88195900  0.00531100  1
  Pb  Pb8  1  0.78309600  0.51910800  0.67958000  1
  Pb  Pb9  1  0.21690400  0.48089200  0.32042000  1
  Pb  Pb10  1  0.82068700  0.99548100  0.68052900  1
  Pb  Pb11  1  0.17931300  0.00451900  0.31947100  1
  S  S12  1  0.29802000  0.23749500  0.67433900  1
  S  S13  1  0.70198000  0.76250500  0.32566100  1
  O  O14  1  0.40051500  0.20506800  0.25954900  1
  O  O15  1  0.59948500  0.79493200  0.74045100  1
  O  O16  1  0.13764700  0.41290900  0.09326300  1
  O  O17  1  0.86235300  0.58709100  0.90673700  1
  O  O18  1  0.04774800  0.75961000  0.73589400  1
  O  O19  1  0.95225200  0.24039000  0.26410600  1
  O  O20  1  0.88459000  0.10201100  0.91239700  1
  O  O21  1  0.11541000  0.89798900  0.08760300  1
  O  O22  1  0.13540400  0.30103500  0.76163800  1
  O  O23  1  0.86459600  0.69896500  0.23836200  1
  O  O24  1  0.51244500  0.29466300  0.75686500  1
  O  O25  1  0.48755500  0.70533700  0.24313500  1
  O  O26  1  0.25664800  0.32122600  0.55927100  1
  O  O27  1  0.74335200  0.67877400  0.44072900  1
  O  O28  1  0.28399400  0.03448900  0.62821300  1
  O  O29  1  0.71600600  0.96551100  0.37178700  1
