# generated using pymatgen
data_LuCuS2
_symmetry_space_group_name_H-M   'P 1'
_cell_length_a   3.89388400
_cell_length_b   6.20270400
_cell_length_c   13.15180000
_cell_angle_alpha   90.00000000
_cell_angle_beta   90.00000000
_cell_angle_gamma   90.00000000
_symmetry_Int_Tables_number   1
_chemical_formula_structural   LuCuS2
_chemical_formula_sum   'Lu4 Cu4 S8'
_cell_volume   317.65029439
_cell_formula_units_Z   4
loop_
 _symmetry_equiv_pos_site_id
 _symmetry_equiv_pos_as_xyz
  1  'x, y, z'
loop_
 _atom_site_type_symbol
 _atom_site_label
 _atom_site_symmetry_multiplicity
 _atom_site_fract_x
 _atom_site_fract_y
 _atom_site_fract_z
 _atom_site_occupancy
  Lu  Lu0  1  0.25000000  0.50285300  0.13361000  1
  Lu  Lu1  1  0.75000000  0.49714700  0.86639000  1
  Lu  Lu2  1  0.75000000  0.00285300  0.36639000  1
  Lu  Lu3  1  0.25000000  0.99714700  0.63361000  1
  Cu  Cu4  1  0.25000000  0.12089200  0.95363200  1
  Cu  Cu5  1  0.75000000  0.62089200  0.54636800  1
  Cu  Cu6  1  0.75000000  0.87910800  0.04636800  1
  Cu  Cu7  1  0.25000000  0.37910800  0.45363200  1
  S  S8  1  0.25000000  0.26450300  0.79266000  1
  S  S9  1  0.75000000  0.73549700  0.20734000  1
  S  S10  1  0.75000000  0.76450300  0.70734000  1
  S  S11  1  0.25000000  0.23549700  0.29266000  1
  S  S12  1  0.25000000  0.74089300  0.95931900  1
  S  S13  1  0.25000000  0.75910700  0.45931900  1
  S  S14  1  0.75000000  0.24089300  0.54068100  1
  S  S15  1  0.75000000  0.25910700  0.04068100  1
