# generated using pymatgen
data_Ba3La7Ti3Cr7O30
_symmetry_space_group_name_H-M   'P 1'
_cell_length_a   5.60867100
_cell_length_b   7.95282572
_cell_length_c   14.82252673
_cell_angle_alpha   105.43657801
_cell_angle_beta   100.80292956
_cell_angle_gamma   90.46304981
_symmetry_Int_Tables_number   1
_chemical_formula_structural   Ba3La7Ti3Cr7O30
_chemical_formula_sum   'Ba3 La7 Ti3 Cr7 O30'
_cell_volume   624.83591063
_cell_formula_units_Z   1
loop_
 _symmetry_equiv_pos_site_id
 _symmetry_equiv_pos_as_xyz
  1  'x, y, z'
loop_
 _atom_site_type_symbol
 _atom_site_label
 _atom_site_symmetry_multiplicity
 _atom_site_fract_x
 _atom_site_fract_y
 _atom_site_fract_z
 _atom_site_occupancy
  Ba  Ba0  1  0.50252100  0.75188600  0.00143500  1
  Ba  Ba1  1  0.50186600  0.24855200  0.00172900  1
  Ba  Ba2  1  0.89977800  0.64917900  0.79653900  1
  La  La3  1  0.89852200  0.14485400  0.79975500  1
  La  La4  1  0.30359500  0.54949900  0.59671000  1
  La  La5  1  0.69897400  0.95016500  0.39677000  1
  La  La6  1  0.10079200  0.35052400  0.20548000  1
  La  La7  1  0.29610000  0.04592900  0.59913400  1
  La  La8  1  0.70419600  0.45178400  0.40423300  1
  La  La9  1  0.10963400  0.85297300  0.20168400  1
  Ti  Ti10  1  0.99849400  0.00127100  0.00034600  1
  Ti  Ti11  1  0.00601900  0.49890000  0.00389900  1
  Ti  Ti12  1  0.40293300  0.39288800  0.79732500  1
  Cr  Cr13  1  0.39489700  0.90044900  0.79717400  1
  Cr  Cr14  1  0.79754600  0.29684600  0.59681300  1
  Cr  Cr15  1  0.80083200  0.79878900  0.59652300  1
  Cr  Cr16  1  0.20048900  0.70032200  0.40046600  1
  Cr  Cr17  1  0.20136500  0.19995600  0.40115100  1
  Cr  Cr18  1  0.60656500  0.10104800  0.20332300  1
  Cr  Cr19  1  0.59947700  0.60259200  0.20376300  1
  O  O20  1  0.18291600  0.44541100  0.89167500  1
  O  O21  1  0.99440700  0.24710800  0.99069100  1
  O  O22  1  0.71605100  0.94687900  0.89332200  1
  O  O23  1  0.55833200  0.86838400  0.68380700  1
  O  O24  1  0.69574900  0.45757100  0.90295800  1
  O  O25  1  0.38952900  0.63302700  0.77795700  1
  O  O26  1  0.40389000  0.15445100  0.80550800  1
  O  O27  1  0.12209500  0.31742200  0.68766800  1
  O  O28  1  0.20603400  0.94863700  0.90568600  1
  O  O29  1  0.95696300  0.26964800  0.48439800  1
  O  O30  1  0.07571400  0.89590600  0.70765000  1
  O  O31  1  0.78846900  0.03571100  0.57123000  1
  O  O32  1  0.80307000  0.55373700  0.60783100  1
  O  O33  1  0.53035700  0.71251200  0.48254800  1
  O  O34  1  0.62404100  0.31655600  0.70647200  1
  O  O35  1  0.34784500  0.66433700  0.28504700  1
  O  O36  1  0.46789900  0.28887200  0.51412400  1
  O  O37  1  0.18249000  0.43790300  0.37659300  1
  O  O38  1  0.21784900  0.96162200  0.42376200  1
  O  O39  1  0.93497700  0.11171900  0.28756700  1
  O  O40  1  0.05326900  0.72891000  0.51562700  1
  O  O41  1  0.79807300  0.06114500  0.09759600  1
  O  O42  1  0.86875700  0.68637500  0.31737800  1
  O  O43  1  0.58137300  0.84738500  0.19489900  1
  O  O44  1  0.62497700  0.36286100  0.22554500  1
  O  O45  1  0.30324200  0.53189200  0.09610000  1
  O  O46  1  0.44609700  0.13769800  0.31668000  1
  O  O47  1  0.27705300  0.07514600  0.11436400  1
  O  O48  1  0.01011100  0.75637700  0.01421200  1
  O  O49  1  0.83813800  0.54352600  0.11346800  1
