# generated using pymatgen
data_Na2Si3(HO4)2
_symmetry_space_group_name_H-M   'P 1'
_cell_length_a   12.87120900
_cell_length_b   7.40063100
_cell_length_c   9.22499638
_cell_angle_alpha   61.01230574
_cell_angle_beta   90.00000000
_cell_angle_gamma   90.00000000
_symmetry_Int_Tables_number   1
_chemical_formula_structural   Na2Si3(HO4)2
_chemical_formula_sum   'Na8 Si12 H8 O32'
_cell_volume   768.64400902
_cell_formula_units_Z   4
loop_
 _symmetry_equiv_pos_site_id
 _symmetry_equiv_pos_as_xyz
  1  'x, y, z'
loop_
 _atom_site_type_symbol
 _atom_site_label
 _atom_site_symmetry_multiplicity
 _atom_site_fract_x
 _atom_site_fract_y
 _atom_site_fract_z
 _atom_site_occupancy
  Na  Na0  1  0.33232600  0.85613800  0.48691200  1
  Na  Na1  1  0.83232600  0.14386200  0.01308800  1
  Na  Na2  1  0.66767400  0.14386200  0.51308800  1
  Na  Na3  1  0.16767400  0.85613800  0.98691200  1
  Na  Na4  1  0.92067300  0.70270500  0.96337600  1
  Na  Na5  1  0.42067300  0.29729500  0.53662400  1
  Na  Na6  1  0.07932700  0.29729500  0.03662400  1
  Na  Na7  1  0.57932700  0.70270500  0.46337600  1
  Si  Si8  1  0.10111200  0.74376400  0.67604300  1
  Si  Si9  1  0.60111200  0.25623600  0.82395700  1
  Si  Si10  1  0.89888800  0.25623600  0.32395700  1
  Si  Si11  1  0.39888800  0.74376400  0.17604300  1
  Si  Si12  1  0.80687300  0.64463800  0.30908100  1
  Si  Si13  1  0.30687300  0.35536200  0.19091900  1
  Si  Si14  1  0.19312700  0.35536200  0.69091900  1
  Si  Si15  1  0.69312700  0.64463800  0.80908100  1
  Si  Si16  1  0.86785600  0.78236800  0.56201700  1
  Si  Si17  1  0.36785600  0.21763200  0.93798300  1
  Si  Si18  1  0.13214400  0.21763200  0.43798300  1
  Si  Si19  1  0.63214400  0.78236800  0.06201700  1
  H  H20  1  0.49391900  0.83693200  0.70335700  1
  H  H21  1  0.99391900  0.16306800  0.79664300  1
  H  H22  1  0.50608100  0.16306800  0.29664300  1
  H  H23  1  0.00608100  0.83693200  0.20335700  1
  H  H24  1  0.39616200  0.78712300  0.81933200  1
  H  H25  1  0.89616200  0.21287700  0.68066800  1
  H  H26  1  0.60383800  0.21287700  0.18066800  1
  H  H27  1  0.10383800  0.78712300  0.31933200  1
  O  O28  1  0.08608600  0.67964500  0.86552300  1
  O  O29  1  0.58608600  0.32035500  0.63447700  1
  O  O30  1  0.91391400  0.32035500  0.13447700  1
  O  O31  1  0.41391400  0.67964500  0.36552300  1
  O  O32  1  0.99192800  0.73969000  0.58176700  1
  O  O33  1  0.49192800  0.26031000  0.91823300  1
  O  O34  1  0.00807200  0.26031000  0.41823300  1
  O  O35  1  0.50807200  0.73969000  0.08176700  1
  O  O36  1  0.88779500  0.79145000  0.17233700  1
  O  O37  1  0.38779500  0.20855000  0.32766300  1
  O  O38  1  0.11220500  0.20855000  0.82766300  1
  O  O39  1  0.61220500  0.79145000  0.67233700  1
  O  O40  1  0.15604700  0.97323500  0.55976100  1
  O  O41  1  0.65604700  0.02676500  0.94023900  1
  O  O42  1  0.84395300  0.02676500  0.44023900  1
  O  O43  1  0.34395300  0.97323500  0.05976100  1
  O  O44  1  0.81060300  0.64987200  0.48617300  1
  O  O45  1  0.31060300  0.35012800  0.01382700  1
  O  O46  1  0.18939700  0.35012800  0.51382700  1
  O  O47  1  0.68939700  0.64987200  0.98617300  1
  O  O48  1  0.18453200  0.60311600  0.63502600  1
  O  O49  1  0.68453200  0.39688400  0.86497400  1
  O  O50  1  0.81546800  0.39688400  0.36497400  1
  O  O51  1  0.31546800  0.60311600  0.13502600  1
  O  O52  1  0.68404800  0.71066400  0.24502300  1
  O  O53  1  0.18404800  0.28933600  0.25497700  1
  O  O54  1  0.31595200  0.28933600  0.75497700  1
  O  O55  1  0.81595200  0.71066400  0.74502300  1
  O  O56  1  0.41790900  0.87398300  0.70483200  1
  O  O57  1  0.91790900  0.12601700  0.79516800  1
  O  O58  1  0.58209100  0.12601700  0.29516800  1
  O  O59  1  0.08209100  0.87398300  0.20483200  1
