# generated using pymatgen
data_Al3P2H14(O5F)3
_symmetry_space_group_name_H-M   'P 1'
_cell_length_a   7.13976100
_cell_length_b   9.37195391
_cell_length_c   10.16570857
_cell_angle_alpha   95.73271933
_cell_angle_beta   97.62566842
_cell_angle_gamma   100.06827664
_symmetry_Int_Tables_number   1
_chemical_formula_structural   Al3P2H14(O5F)3
_chemical_formula_sum   'Al6 P4 H28 O30 F6'
_cell_volume   658.52349875
_cell_formula_units_Z   2
loop_
 _symmetry_equiv_pos_site_id
 _symmetry_equiv_pos_as_xyz
  1  'x, y, z'
loop_
 _atom_site_type_symbol
 _atom_site_label
 _atom_site_symmetry_multiplicity
 _atom_site_fract_x
 _atom_site_fract_y
 _atom_site_fract_z
 _atom_site_occupancy
  Al  Al0  1  0.38281300  0.31772800  0.15178500  1
  Al  Al1  1  0.61718700  0.68227200  0.84821500  1
  Al  Al2  1  0.82397500  0.55419500  0.29344500  1
  Al  Al3  1  0.17602500  0.44580500  0.70655500  1
  Al  Al4  1  0.29311200  0.77086300  0.37597600  1
  Al  Al5  1  0.70688800  0.22913700  0.62402400  1
  P  P6  1  0.47119000  0.66550000  0.12886700  1
  P  P7  1  0.52881000  0.33450000  0.87113300  1
  P  P8  1  0.19391200  0.42956200  0.39835500  1
  P  P9  1  0.80608800  0.57043800  0.60164500  1
  H  H10  1  0.13893800  0.25265700  0.93531200  1
  H  H11  1  0.86106200  0.74734300  0.06468800  1
  H  H12  1  0.00841100  0.18377400  0.04146200  1
  H  H13  1  0.99158900  0.81622600  0.95853800  1
  H  H14  1  0.34269300  0.04060000  0.09172200  1
  H  H15  1  0.65730700  0.95940000  0.90827800  1
  H  H16  1  0.34188900  0.06507100  0.24765800  1
  H  H17  1  0.65811100  0.93492900  0.75234200  1
  H  H18  1  0.80573100  0.48785700  0.03131400  1
  H  H19  1  0.19426900  0.51214300  0.96868600  1
  H  H20  1  0.96922300  0.41515500  0.10854500  1
  H  H21  1  0.03077700  0.58484500  0.89145500  1
  H  H22  1  0.61451300  0.91034200  0.52220100  1
  H  H23  1  0.38548700  0.08965800  0.47779900  1
  H  H24  1  0.63379200  0.75017700  0.45704300  1
  H  H25  1  0.36620800  0.24982300  0.54295700  1
  H  H26  1  0.19806700  0.89936400  0.59658900  1
  H  H27  1  0.80193300  0.10063600  0.40341100  1
  H  H28  1  0.16181000  0.72485300  0.59436600  1
  H  H29  1  0.83819000  0.27514700  0.40563400  1
  H  H30  1  0.69449300  0.16137800  0.05410300  1
  H  H31  1  0.30550700  0.83862200  0.94589700  1
  H  H32  1  0.79879100  0.05551300  0.14069600  1
  H  H33  1  0.20120900  0.94448700  0.85930400  1
  H  H34  1  0.79521200  0.87636200  0.28081300  1
  H  H35  1  0.20478800  0.12363800  0.71918700  1
  H  H36  1  0.00391900  0.97006300  0.31206500  1
  H  H37  1  0.99608100  0.02993700  0.68793500  1
  O  O38  1  0.35992500  0.50442900  0.10171900  1
  O  O39  1  0.64007500  0.49557100  0.89828100  1
  O  O40  1  0.51063700  0.27334400  0.00613700  1
  O  O41  1  0.48936300  0.72665600  0.99386300  1
  O  O42  1  0.25234700  0.32026800  0.29563900  1
  O  O43  1  0.74765300  0.67973200  0.70436100  1
  O  O44  1  0.12970700  0.25227500  0.03097200  1
  O  O45  1  0.87029300  0.74772500  0.96902800  1
  O  O46  1  0.39017700  0.11228000  0.17266700  1
  O  O47  1  0.60982300  0.88772000  0.82733300  1
  O  O48  1  0.67838100  0.67390300  0.20467100  1
  O  O49  1  0.32161900  0.32609700  0.79532900  1
  O  O50  1  0.97373200  0.42566800  0.36005300  1
  O  O51  1  0.02626800  0.57433200  0.63994700  1
  O  O52  1  0.77122400  0.62525800  0.46222500  1
  O  O53  1  0.22877600  0.37474200  0.53777500  1
  O  O54  1  0.89246900  0.49050200  0.11785100  1
  O  O55  1  0.10753100  0.50949800  0.88214900  1
  O  O56  1  0.35746600  0.76022500  0.20438300  1
  O  O57  1  0.64253400  0.23977500  0.79561700  1
  O  O58  1  0.30989800  0.58355400  0.40324800  1
  O  O59  1  0.69010200  0.41644600  0.59675200  1
  O  O60  1  0.56092800  0.83232900  0.44672000  1
  O  O61  1  0.43907200  0.16767100  0.55328000  1
  O  O62  1  0.22924800  0.80812300  0.55350200  1
  O  O63  1  0.77075200  0.19187700  0.44649800  1
  O  O64  1  0.78790200  0.09449800  0.05272400  1
  O  O65  1  0.21209800  0.90550200  0.94727600  1
  O  O66  1  0.86786400  0.97678300  0.28796200  1
  O  O67  1  0.13213600  0.02321700  0.71203800  1
  F  F68  1  0.61528200  0.39641700  0.25991100  1
  F  F69  1  0.38471800  0.60358300  0.74008900  1
  F  F70  1  0.03195300  0.70890300  0.30734600  1
  F  F71  1  0.96804700  0.29109700  0.69265400  1
  F  F72  1  0.26147100  0.96107100  0.36152400  1
  F  F73  1  0.73852900  0.03892900  0.63847600  1
