# generated using pymatgen
data_K2Na2Sb2H6O3F10
_symmetry_space_group_name_H-M   'P 1'
_cell_length_a   17.90251900
_cell_length_b   6.15382800
_cell_length_c   6.15535360
_cell_angle_alpha   89.39108714
_cell_angle_beta   90.00000000
_cell_angle_gamma   90.00000000
_symmetry_Int_Tables_number   1
_chemical_formula_structural   K2Na2Sb2H6O3F10
_chemical_formula_sum   'K4 Na4 Sb4 H12 O6 F20'
_cell_volume   678.09099569
_cell_formula_units_Z   2
loop_
 _symmetry_equiv_pos_site_id
 _symmetry_equiv_pos_as_xyz
  1  'x, y, z'
loop_
 _atom_site_type_symbol
 _atom_site_label
 _atom_site_symmetry_multiplicity
 _atom_site_fract_x
 _atom_site_fract_y
 _atom_site_fract_z
 _atom_site_occupancy
  K  K0  1  0.00016600  0.75722100  0.24032900  1
  K  K1  1  0.50016600  0.24277900  0.75967100  1
  K  K2  1  0.99983400  0.24277900  0.75967100  1
  K  K3  1  0.49983400  0.75722100  0.24032900  1
  Na  Na4  1  0.88493000  0.25299800  0.25916800  1
  Na  Na5  1  0.38493000  0.74700200  0.74083200  1
  Na  Na6  1  0.11507000  0.74700200  0.74083200  1
  Na  Na7  1  0.61507000  0.25299800  0.25916800  1
  Sb  Sb8  1  0.86960200  0.74328700  0.74225700  1
  Sb  Sb9  1  0.36960200  0.25671300  0.25774300  1
  Sb  Sb10  1  0.13039800  0.25671300  0.25774300  1
  Sb  Sb11  1  0.63039800  0.74328700  0.74225700  1
  H  H12  1  0.75000000  0.28509400  0.45796300  1
  H  H13  1  0.25000000  0.71490600  0.54203700  1
  H  H14  1  0.75000000  0.45480500  0.26456500  1
  H  H15  1  0.25000000  0.54519500  0.73543500  1
  H  H16  1  0.79344200  0.22590600  0.85603300  1
  H  H17  1  0.29344200  0.77409400  0.14396700  1
  H  H18  1  0.20655800  0.77409400  0.14396700  1
  H  H19  1  0.70655800  0.22590600  0.85603300  1
  H  H20  1  0.79352900  0.82618800  0.21015000  1
  H  H21  1  0.29352900  0.17381200  0.78985000  1
  H  H22  1  0.20647100  0.17381200  0.78985000  1
  H  H23  1  0.70647100  0.82618800  0.21015000  1
  O  O24  1  0.75000000  0.29560200  0.29792900  1
  O  O25  1  0.25000000  0.70439800  0.70207100  1
  O  O26  1  0.75000000  0.26811600  0.76802500  1
  O  O27  1  0.25000000  0.73188400  0.23197500  1
  O  O28  1  0.75000000  0.73874800  0.24998100  1
  O  O29  1  0.25000000  0.26125200  0.75001900  1
  F  F30  1  0.98143200  0.77756900  0.78187600  1
  F  F31  1  0.48143200  0.22243100  0.21812400  1
  F  F32  1  0.01856800  0.22243100  0.21812400  1
  F  F33  1  0.51856800  0.77756900  0.78187600  1
  F  F34  1  0.89707500  0.98319600  0.50910300  1
  F  F35  1  0.39707500  0.01680400  0.49089700  1
  F  F36  1  0.10292500  0.01680400  0.49089700  1
  F  F37  1  0.60292500  0.98319600  0.50910300  1
  F  F38  1  0.89369000  0.50701100  0.98378000  1
  F  F39  1  0.39369000  0.49298900  0.01622000  1
  F  F40  1  0.10631000  0.49298900  0.01622000  1
  F  F41  1  0.60631000  0.50701100  0.98378000  1
  F  F42  1  0.90740100  0.51654800  0.51543700  1
  F  F43  1  0.40740100  0.48345200  0.48456300  1
  F  F44  1  0.09259900  0.48345200  0.48456300  1
  F  F45  1  0.59259900  0.51654800  0.51543700  1
  F  F46  1  0.87431500  0.98711100  0.99385200  1
  F  F47  1  0.37431500  0.01288900  0.00614800  1
  F  F48  1  0.12568500  0.01288900  0.00614800  1
  F  F49  1  0.62568500  0.98711100  0.99385200  1
