# generated using pymatgen
data_Mg3P2(H22O15)2
_symmetry_space_group_name_H-M   'P 1'
_cell_length_a   6.98727500
_cell_length_b   6.99954929
_cell_length_c   16.16023324
_cell_angle_alpha   97.80241981
_cell_angle_beta   89.92076559
_cell_angle_gamma   119.89020387
_symmetry_Int_Tables_number   1
_chemical_formula_structural   Mg3P2(H22O15)2
_chemical_formula_sum   'Mg3 P2 H44 O30'
_cell_volume   676.86147514
_cell_formula_units_Z   1
loop_
 _symmetry_equiv_pos_site_id
 _symmetry_equiv_pos_as_xyz
  1  'x, y, z'
loop_
 _atom_site_type_symbol
 _atom_site_label
 _atom_site_symmetry_multiplicity
 _atom_site_fract_x
 _atom_site_fract_y
 _atom_site_fract_z
 _atom_site_occupancy
  Mg  Mg0  1  0.00000000  0.50000000  0.00000000  1
  Mg  Mg1  1  0.64911300  0.24759500  0.65568100  1
  Mg  Mg2  1  0.35088700  0.75240500  0.34431900  1
  P  P3  1  0.00279700  0.96322100  0.75905300  1
  P  P4  1  0.99720300  0.03677900  0.24094700  1
  H  H5  1  0.70424500  0.36117300  0.85345800  1
  H  H6  1  0.29575500  0.63882700  0.14654200  1
  H  H7  1  0.76395200  0.17789700  0.86592900  1
  H  H8  1  0.23604800  0.82210300  0.13407100  1
  H  H9  1  0.14186600  0.79859200  0.88162600  1
  H  H10  1  0.85813400  0.20140800  0.11837400  1
  H  H11  1  0.24398200  0.92318600  0.97549600  1
  H  H12  1  0.75601800  0.07681400  0.02450400  1
  H  H13  1  0.18707600  0.31839400  0.89191800  1
  H  H14  1  0.81292400  0.68160600  0.10808200  1
  H  H15  1  0.25813200  0.30933600  0.98587500  1
  H  H16  1  0.74186800  0.69066400  0.01412500  1
  H  H17  1  0.83017000  0.00983200  0.60242500  1
  H  H18  1  0.16983000  0.99016800  0.39757500  1
  H  H19  1  0.71337900  0.99510800  0.51375200  1
  H  H20  1  0.28662100  0.00489200  0.48624800  1
  H  H21  1  0.84697900  0.67117600  0.61590500  1
  H  H22  1  0.15302100  0.32882400  0.38409500  1
  H  H23  1  0.75767500  0.49881400  0.52820700  1
  H  H24  1  0.24232500  0.50118600  0.47179300  1
  H  H25  1  0.02750900  0.56745500  0.74298400  1
  H  H26  1  0.97249100  0.43254500  0.25701600  1
  H  H27  1  0.04036600  0.34253800  0.74526900  1
  H  H28  1  0.95963400  0.65746200  0.25473100  1
  H  H29  1  0.41222300  0.34469400  0.77245000  1
  H  H30  1  0.58777700  0.65530600  0.22755000  1
  H  H31  1  0.63600600  0.58089500  0.77045500  1
  H  H32  1  0.36399400  0.41910500  0.22954500  1
  H  H33  1  0.19711200  0.05098700  0.61876900  1
  H  H34  1  0.80288800  0.94901300  0.38123100  1
  H  H35  1  0.33851500  0.28326000  0.58497200  1
  H  H36  1  0.66148500  0.71674000  0.41502800  1
  H  H37  1  0.59629000  0.92184500  0.74412800  1
  H  H38  1  0.40371000  0.07815500  0.25587200  1
  H  H39  1  0.36003500  0.91617300  0.74496800  1
  H  H40  1  0.63996500  0.08382700  0.25503200  1
  H  H41  1  0.49146600  0.72829100  0.94839300  1
  H  H42  1  0.50853400  0.27170900  0.05160700  1
  H  H43  1  0.70641500  0.83967600  0.89701200  1
  H  H44  1  0.29358500  0.16032400  0.10298800  1
  H  H45  1  0.38271800  0.67106300  0.61084900  1
  H  H46  1  0.61728200  0.32893700  0.38915100  1
  H  H47  1  0.14532600  0.47165800  0.61425200  1
  H  H48  1  0.85467400  0.52834200  0.38574800  1
  O  O49  1  0.97485600  0.92855400  0.66134200  1
  O  O50  1  0.02514400  0.07144600  0.33865800  1
  O  O51  1  0.14992400  0.21800400  0.79131400  1
  O  O52  1  0.85007600  0.78199600  0.20868600  1
  O  O53  1  0.11302500  0.83264400  0.78528500  1
  O  O54  1  0.88697500  0.16735600  0.21471500  1
  O  O55  1  0.77074000  0.87599900  0.79494900  1
  O  O56  1  0.22926000  0.12400100  0.20505100  1
  O  O57  1  0.76573200  0.31095400  0.89543400  1
  O  O58  1  0.23426800  0.68904600  0.10456600  1
  O  O59  1  0.16885300  0.77497300  0.93945200  1
  O  O60  1  0.83114700  0.22502700  0.06054800  1
  O  O61  1  0.21591400  0.39331200  0.95194900  1
  O  O62  1  0.78408600  0.60668800  0.04805100  1
  O  O63  1  0.75130700  0.07009000  0.57270300  1
  O  O64  1  0.24869300  0.92991000  0.42729700  1
  O  O65  1  0.76220900  0.50952000  0.58996500  1
  O  O66  1  0.23779100  0.49048000  0.41003500  1
  O  O67  1  0.97565100  0.41248800  0.71279300  1
  O  O68  1  0.02434900  0.58751200  0.28720700  1
  O  O69  1  0.57522300  0.41619500  0.76271000  1
  O  O70  1  0.42477700  0.58380500  0.23729000  1
  O  O71  1  0.33836200  0.14323000  0.58990200  1
  O  O72  1  0.66163800  0.85677000  0.41009800  1
  O  O73  1  0.49677600  0.95974300  0.71373900  1
  O  O74  1  0.50322400  0.04025700  0.28626100  1
  O  O75  1  0.65325100  0.82654200  0.95462500  1
  O  O76  1  0.34674900  0.17345800  0.04537500  1
  O  O77  1  0.27747200  0.52114000  0.58151200  1
  O  O78  1  0.72252800  0.47886000  0.41848800  1
