# generated using pymatgen
data_Bi28Mo2O47
_symmetry_space_group_name_H-M   'P 1'
_cell_length_a   8.87172000
_cell_length_b   8.88826659
_cell_length_c   17.27511598
_cell_angle_alpha   90.11899246
_cell_angle_beta   90.16029465
_cell_angle_gamma   90.06978042
_symmetry_Int_Tables_number   1
_chemical_formula_structural   Bi28Mo2O47
_chemical_formula_sum   'Bi28 Mo2 O47'
_cell_volume   1362.20637787
_cell_formula_units_Z   1
loop_
 _symmetry_equiv_pos_site_id
 _symmetry_equiv_pos_as_xyz
  1  'x, y, z'
loop_
 _atom_site_type_symbol
 _atom_site_label
 _atom_site_symmetry_multiplicity
 _atom_site_fract_x
 _atom_site_fract_y
 _atom_site_fract_z
 _atom_site_occupancy
  Bi  Bi0  1  0.69937500  0.10467500  0.83099000  1
  Bi  Bi1  1  0.61246900  0.79555900  0.66678000  1
  Bi  Bi2  1  0.49823400  0.48572700  0.84151400  1
  Bi  Bi3  1  0.39287000  0.19420900  0.66622700  1
  Bi  Bi4  1  0.28421000  0.94790600  0.49900500  1
  Bi  Bi5  1  0.30178000  0.88369400  0.82652300  1
  Bi  Bi6  1  0.20551200  0.60977400  0.32856600  1
  Bi  Bi7  1  0.11103100  0.29488200  0.16776200  1
  Bi  Bi8  1  0.20453000  0.60715100  0.66752500  1
  Bi  Bi9  1  0.05560900  0.28252300  0.49802900  1
  Bi  Bi10  1  0.11231700  0.29233000  0.82645000  1
  Bi  Bi11  1  0.00111400  0.99321300  0.34004300  1
  Bi  Bi12  1  0.00383300  0.99858200  0.65845700  1
  Bi  Bi13  1  0.89239300  0.69773400  0.16685500  1
  Bi  Bi14  1  0.94316400  0.70865400  0.50000800  1
  Bi  Bi15  1  0.78343500  0.44585800  0.00009400  1
  Bi  Bi16  1  0.80417500  0.38969100  0.32962400  1
  Bi  Bi17  1  0.89117600  0.68918800  0.82842500  1
  Bi  Bi18  1  0.80399800  0.38696900  0.66471000  1
  Bi  Bi19  1  0.70114700  0.10800600  0.16713300  1
  Bi  Bi20  1  0.71606800  0.05123700  0.49817400  1
  Bi  Bi21  1  0.55192600  0.78084100  0.99839100  1
  Bi  Bi22  1  0.60915000  0.79507500  0.32720200  1
  Bi  Bi23  1  0.49777200  0.49497800  0.15888400  1
  Bi  Bi24  1  0.44461200  0.20849100  0.00183400  1
  Bi  Bi25  1  0.39238700  0.19853700  0.32938900  1
  Bi  Bi26  1  0.29807900  0.89047000  0.16602500  1
  Bi  Bi27  1  0.21252000  0.54894400  0.99861100  1
  Mo  Mo28  1  0.00151500  0.96580600  0.98180500  1
  Mo  Mo29  1  0.53232400  0.46129700  0.48444500  1
  O  O30  1  0.82322800  0.03004700  0.01667400  1
  O  O31  1  0.74930300  0.57431000  0.74719700  1
  O  O32  1  0.68157300  0.61985500  0.92004400  1
  O  O33  1  0.62420300  0.31575300  0.92083900  1
  O  O34  1  0.57523100  0.24821100  0.75446900  1
  O  O35  1  0.50241700  0.99456700  0.61659500  1
  O  O36  1  0.50236400  0.99181000  0.88095600  1
  O  O37  1  0.41940600  0.74393800  0.74617900  1
  O  O38  1  0.24741500  0.07674400  0.25035100  1
  O  O39  1  0.37407500  0.67519600  0.91974200  1
  O  O40  1  0.32184900  0.36703500  0.91885800  1
  O  O41  1  0.24819600  0.07175100  0.74394700  1
  O  O42  1  0.25579800  0.41936500  0.75068100  1
  O  O43  1  0.17946600  0.11961500  0.42066400  1
  O  O44  1  0.17928000  0.11845800  0.57993300  1
  O  O45  1  0.12674900  0.81873700  0.41972700  1
  O  O46  1  0.07634300  0.75529500  0.25021400  1
  O  O47  1  0.12816300  0.81601400  0.58057200  1
  O  O48  1  0.99934800  0.49418200  0.11779100  1
  O  O49  1  0.08328200  0.74262100  0.74658700  1
  O  O50  1  0.00536900  0.49412100  0.38298800  1
  O  O51  1  0.00430500  0.49654300  0.61746800  1
  O  O52  1  0.92419300  0.24507600  0.25207000  1
  O  O53  1  0.00506500  0.99523300  0.87856800  1
  O  O54  1  0.99737300  0.48811500  0.87832500  1
  O  O55  1  0.87783600  0.18008700  0.42030300  1
  O  O56  1  0.92717000  0.24357700  0.74191600  1
  O  O57  1  0.88082600  0.17774000  0.57713100  1
  O  O58  1  0.81977000  0.87425500  0.42032400  1
  O  O59  1  0.81795900  0.87492200  0.57812800  1
  O  O60  1  0.75404500  0.57745500  0.24656700  1
  O  O61  1  0.75398300  0.91999600  0.24932300  1
  O  O62  1  0.67847700  0.62073900  0.07807200  1
  O  O63  1  0.62287700  0.31987600  0.07926100  1
  O  O64  1  0.74678900  0.91751200  0.74637500  1
  O  O65  1  0.72189400  0.52531300  0.51299600  1
  O  O66  1  0.57728700  0.24937800  0.24570600  1
  O  O67  1  0.49909100  0.99903800  0.11630200  1
  O  O68  1  0.47657600  0.52418900  0.38360300  1
  O  O69  1  0.50091600  0.99673400  0.38087500  1
  O  O70  1  0.43694700  0.29035500  0.51381400  1
  O  O71  1  0.42036000  0.74992800  0.24427800  1
  O  O72  1  0.37412500  0.67726300  0.07755100  1
  O  O73  1  0.32174000  0.37100200  0.08051800  1
  O  O74  1  0.25122400  0.42012100  0.24490200  1
  O  O75  1  0.15782300  0.06399600  0.02625800  1
  O  O76  1  0.01657000  0.76593000  0.99927200  1
