# generated using pymatgen
data_Sr10Mn5Zn9(AsO)10
_symmetry_space_group_name_H-M   'P 1'
_cell_length_a   9.34526700
_cell_length_b   9.80613472
_cell_length_c   12.19556174
_cell_angle_alpha   92.00392251
_cell_angle_beta   112.24940818
_cell_angle_gamma   108.89686987
_symmetry_Int_Tables_number   1
_chemical_formula_structural   Sr10Mn5Zn9(AsO)10
_chemical_formula_sum   'Sr10 Mn5 Zn9 As10 O10'
_cell_volume   962.66928402
_cell_formula_units_Z   1
loop_
 _symmetry_equiv_pos_site_id
 _symmetry_equiv_pos_as_xyz
  1  'x, y, z'
loop_
 _atom_site_type_symbol
 _atom_site_label
 _atom_site_symmetry_multiplicity
 _atom_site_fract_x
 _atom_site_fract_y
 _atom_site_fract_z
 _atom_site_occupancy
  Sr  Sr0  1  0.87677200  0.50412500  0.44825800  1
  Sr  Sr1  1  0.97404000  0.32529700  0.82059200  1
  Sr  Sr2  1  0.27819700  0.15861400  0.87426600  1
  Sr  Sr3  1  0.39930600  0.31538900  0.24888900  1
  Sr  Sr4  1  0.51001300  0.01705200  0.33236500  1
  Sr  Sr5  1  0.24877000  0.81490900  0.64444600  1
  Sr  Sr6  1  0.83685700  0.85741100  0.87354500  1
  Sr  Sr7  1  0.48403900  0.54458500  0.02020400  1
  Sr  Sr8  1  0.93444900  0.70841200  0.20643600  1
  Sr  Sr9  1  0.31208100  0.64039000  0.44406300  1
  Mn  Mn10  1  0.03388400  0.05893200  0.15293800  1
  Mn  Mn11  1  0.21965700  0.96938200  0.42933100  1
  Mn  Mn12  1  0.25388900  0.41789300  0.68028800  1
  Mn  Mn13  1  0.67830600  0.32306800  0.17495200  1
  Mn  Mn14  1  0.65952300  0.01376000  0.64261100  1
  Zn  Zn15  1  0.44924200  0.92331600  0.98833100  1
  Zn  Zn16  1  0.61680500  0.67785100  0.31322700  1
  Zn  Zn17  1  0.92720100  0.95862000  0.61474700  1
  Zn  Zn18  1  0.72565100  0.51549400  0.70431900  1
  Zn  Zn19  1  0.11277900  0.66567300  0.02281600  1
  Zn  Zn20  1  0.77403200  0.27902400  0.99394400  1
  Zn  Zn21  1  0.00583600  0.16907100  0.37149300  1
  Zn  Zn22  1  0.48866400  0.19911400  0.68248500  1
  Zn  Zn23  1  0.70816100  0.95153400  0.15259100  1
  As  As24  1  0.18356500  0.14303600  0.58535000  1
  As  As25  1  0.21303600  0.94879600  0.05789000  1
  As  As26  1  0.70978900  0.69954500  0.56806000  1
  As  As27  1  0.15191900  0.79394800  0.85732100  1
  As  As28  1  0.80345200  0.52152400  0.93148300  1
  As  As29  1  0.30670900  0.60040400  0.19312400  1
  As  As30  1  0.99207000  0.31715300  0.20943900  1
  As  As31  1  0.66833700  0.28365000  0.58028200  1
  As  As32  1  0.58745800  0.05455100  0.84828700  1
  As  As33  1  0.81719900  0.93152700  0.37482000  1
  O  O34  1  0.24585800  0.07127400  0.29102800  1
  O  O35  1  0.09655200  0.74652700  0.41747900  1
  O  O36  1  0.83156700  0.87817100  0.07884500  1
  O  O37  1  0.25086500  0.39640400  0.83802900  1
  O  O38  1  0.70520100  0.55283800  0.24279400  1
  O  O39  1  0.64998600  0.26521700  0.31960000  1
  O  O40  1  0.18736800  0.55703300  0.58585600  1
  O  O41  1  0.90692300  0.06048000  0.75234800  1
  O  O42  1  0.45102600  0.30601300  0.06464300  1
  O  O43  1  0.43296600  0.91299400  0.51618500  1
