# generated using pymatgen
data_Ti5Fe11O24
_symmetry_space_group_name_H-M   'P 1'
_cell_length_a   5.16377600
_cell_length_b   5.52816301
_cell_length_c   17.21285894
_cell_angle_alpha   87.98963726
_cell_angle_beta   98.10128763
_cell_angle_gamma   117.12593669
_symmetry_Int_Tables_number   1
_chemical_formula_structural   Ti5Fe11O24
_chemical_formula_sum   'Ti5 Fe11 O24'
_cell_volume   432.71348679
_cell_formula_units_Z   1
loop_
 _symmetry_equiv_pos_site_id
 _symmetry_equiv_pos_as_xyz
  1  'x, y, z'
loop_
 _atom_site_type_symbol
 _atom_site_label
 _atom_site_symmetry_multiplicity
 _atom_site_fract_x
 _atom_site_fract_y
 _atom_site_fract_z
 _atom_site_occupancy
  Ti  Ti0  1  0.45606800  0.02487600  0.90521100  1
  Ti  Ti1  1  0.96423800  0.28807800  0.66683800  1
  Ti  Ti2  1  0.79012900  0.09537500  0.46467300  1
  Ti  Ti3  1  0.71359300  0.15690300  0.28863700  1
  Ti  Ti4  1  0.21127700  0.39797600  0.03562000  1
  Fe  Fe5  1  0.78240200  0.60902700  0.96559700  1
  Fe  Fe6  1  0.27700600  0.85093000  0.71197900  1
  Fe  Fe7  1  0.04155900  0.22633000  0.84061300  1
  Fe  Fe8  1  0.71737100  0.65057200  0.78609400  1
  Fe  Fe9  1  0.46707500  0.52013000  0.41002900  1
  Fe  Fe10  1  0.53588400  0.47610300  0.58690900  1
  Fe  Fe11  1  0.28144100  0.35449000  0.21347500  1
  Fe  Fe12  1  0.22386200  0.90066400  0.53815100  1
  Fe  Fe13  1  0.96967000  0.77544300  0.16416200  1
  Fe  Fe14  1  0.03356000  0.73222900  0.34135200  1
  Fe  Fe15  1  0.52426600  0.96958100  0.08761800  1
  O  O16  1  0.05334600  0.85395200  0.88410000  1
  O  O17  1  0.56015500  0.91732300  0.81930200  1
  O  O18  1  0.50584600  0.77810300  0.98525800  1
  O  O19  1  0.95246800  0.47851600  0.75830700  1
  O  O20  1  0.93985000  0.29776400  0.94595800  1
  O  O21  1  0.55242500  0.12771600  0.63626800  1
  O  O22  1  0.50336100  0.38167300  0.86240300  1
  O  O23  1  0.06753700  0.19430800  0.56276300  1
  O  O24  1  0.00142000  0.01762800  0.73009300  1
  O  O25  1  0.47554900  0.73741000  0.51361100  1
  O  O26  1  0.42411300  0.54938500  0.68693300  1
  O  O27  1  0.99977800  0.33975500  0.39085100  1
  O  O28  1  0.96973300  0.63423200  0.60750700  1
  O  O29  1  0.56398400  0.42392100  0.30743300  1
  O  O30  1  0.53756900  0.24558900  0.48795800  1
  O  O31  1  0.95931200  0.00321000  0.25815800  1
  O  O32  1  0.93845600  0.83032700  0.44337300  1
  O  O33  1  0.53309200  0.61252900  0.13644800  1
  O  O34  1  0.50063600  0.90825900  0.35889300  1
  O  O35  1  0.08192600  0.68561600  0.06872800  1
  O  O36  1  0.02879900  0.51514800  0.23656600  1
  O  O37  1  0.44962800  0.23373000  0.01589300  1
  O  O38  1  0.43418500  0.06125300  0.19008300  1
  O  O39  1  0.97743200  0.14394700  0.10615500  1
