# generated using pymatgen
data_Ca5Yb3Ti5Mn3O24
_symmetry_space_group_name_H-M   'P 1'
_cell_length_a   5.34502900
_cell_length_b   5.45036031
_cell_length_c   15.18827918
_cell_angle_alpha   89.86231655
_cell_angle_beta   89.96816121
_cell_angle_gamma   89.96024251
_symmetry_Int_Tables_number   1
_chemical_formula_structural   Ca5Yb3Ti5Mn3O24
_chemical_formula_sum   'Ca5 Yb3 Ti5 Mn3 O24'
_cell_volume   442.46856902
_cell_formula_units_Z   1
loop_
 _symmetry_equiv_pos_site_id
 _symmetry_equiv_pos_as_xyz
  1  'x, y, z'
loop_
 _atom_site_type_symbol
 _atom_site_label
 _atom_site_symmetry_multiplicity
 _atom_site_fract_x
 _atom_site_fract_y
 _atom_site_fract_z
 _atom_site_occupancy
  Ca  Ca0  1  0.98611200  0.04096500  0.37962800  1
  Ca  Ca1  1  0.98894400  0.04634300  0.86969100  1
  Ca  Ca2  1  0.50873500  0.54378400  0.37996400  1
  Ca  Ca3  1  0.48684700  0.45721800  0.12349000  1
  Ca  Ca4  1  0.01159000  0.95723700  0.12406100  1
  Yb  Yb5  1  0.51252100  0.55063500  0.86936800  1
  Yb  Yb6  1  0.49089000  0.44641500  0.62697000  1
  Yb  Yb7  1  0.01284600  0.94853700  0.62672200  1
  Ti  Ti8  1  0.99758500  0.50140000  0.99641600  1
  Ti  Ti9  1  0.99463100  0.49963000  0.25085600  1
  Ti  Ti10  1  0.99846000  0.49638900  0.50350000  1
  Ti  Ti11  1  0.49689000  0.99901000  0.25163400  1
  Ti  Ti12  1  0.50081700  0.00158800  0.99706300  1
  Mn  Mn13  1  0.99902000  0.49988500  0.74905800  1
  Mn  Mn14  1  0.49644200  0.99749500  0.74734300  1
  Mn  Mn15  1  0.49648300  0.99670600  0.50422500  1
  O  O16  1  0.92047400  0.52142400  0.12388000  1
  O  O17  1  0.92170600  0.51777000  0.62786600  1
  O  O18  1  0.79198300  0.79127100  0.27262100  1
  O  O19  1  0.78548600  0.78765800  0.48379000  1
  O  O20  1  0.78967400  0.78615200  0.77021500  1
  O  O21  1  0.78973600  0.79075700  0.97518700  1
  O  O22  1  0.70884500  0.29031400  0.77013900  1
  O  O23  1  0.70947300  0.29168500  0.27271600  1
  O  O24  1  0.70895300  0.28394900  0.48409000  1
  O  O25  1  0.70700800  0.29459500  0.97515500  1
  O  O26  1  0.58045800  0.02122300  0.12403200  1
  O  O27  1  0.58996700  0.02175500  0.62611400  1
  O  O28  1  0.42189800  0.98025400  0.87005800  1
  O  O29  1  0.42065200  0.98169000  0.37932600  1
  O  O30  1  0.29194300  0.71162300  0.01706300  1
  O  O31  1  0.29176300  0.71225500  0.22991600  1
  O  O32  1  0.29086200  0.71476000  0.52550800  1
  O  O33  1  0.29194300  0.71043700  0.72556300  1
  O  O34  1  0.20871600  0.21152800  0.01818700  1
  O  O35  1  0.21012000  0.21151100  0.22946900  1
  O  O36  1  0.21606700  0.20940500  0.52584600  1
  O  O37  1  0.21228100  0.21127400  0.72451000  1
  O  O38  1  0.07753700  0.48067000  0.37802200  1
  O  O39  1  0.08364200  0.48280300  0.87073700  1
