# generated using pymatgen
data_K2P2H2O7
_symmetry_space_group_name_H-M   'P 1'
_cell_length_a   17.66883400
_cell_length_b   6.89560700
_cell_length_c   9.34575355
_cell_angle_alpha   72.53956310
_cell_angle_beta   90.00000000
_cell_angle_gamma   90.00000000
_symmetry_Int_Tables_number   1
_chemical_formula_structural   K2P2H2O7
_chemical_formula_sum   'K12 P12 H12 O42'
_cell_volume   1086.19714610
_cell_formula_units_Z   6
loop_
 _symmetry_equiv_pos_site_id
 _symmetry_equiv_pos_as_xyz
  1  'x, y, z'
loop_
 _atom_site_type_symbol
 _atom_site_label
 _atom_site_symmetry_multiplicity
 _atom_site_fract_x
 _atom_site_fract_y
 _atom_site_fract_z
 _atom_site_occupancy
  K  K0  1  0.95204800  0.77093100  0.40245500  1
  K  K1  1  0.45204800  0.22906900  0.59754500  1
  K  K2  1  0.04795200  0.22906900  0.59754500  1
  K  K3  1  0.54795200  0.77093100  0.40245500  1
  K  K4  1  0.08418200  0.63186400  0.84015400  1
  K  K5  1  0.58418200  0.36813600  0.15984600  1
  K  K6  1  0.91581800  0.36813600  0.15984600  1
  K  K7  1  0.41581800  0.63186400  0.84015400  1
  K  K8  1  0.75000000  0.73541600  0.43886600  1
  K  K9  1  0.25000000  0.26458400  0.56113400  1
  K  K10  1  0.25000000  0.62808400  0.15973600  1
  K  K11  1  0.75000000  0.37191600  0.84026400  1
  P  P12  1  0.33710800  0.11036700  0.96017200  1
  P  P13  1  0.83710800  0.88963300  0.03982800  1
  P  P14  1  0.66289200  0.88963300  0.03982800  1
  P  P15  1  0.16289200  0.11036700  0.96017200  1
  P  P16  1  0.38387900  0.16203400  0.25779700  1
  P  P17  1  0.88387900  0.83796600  0.74220300  1
  P  P18  1  0.61612100  0.83796600  0.74220300  1
  P  P19  1  0.11612100  0.16203400  0.25779700  1
  P  P20  1  0.33510100  0.79605200  0.48606500  1
  P  P21  1  0.83510100  0.20394800  0.51393500  1
  P  P22  1  0.66489900  0.20394800  0.51393500  1
  P  P23  1  0.16489900  0.79605200  0.48606500  1
  H  H24  1  0.05617800  0.75075200  0.12847300  1
  H  H25  1  0.55617800  0.24924800  0.87152700  1
  H  H26  1  0.94382200  0.24924800  0.87152700  1
  H  H27  1  0.44382200  0.75075200  0.12847300  1
  H  H28  1  0.06966500  0.53984600  0.24713900  1
  H  H29  1  0.56966500  0.46015400  0.75286100  1
  H  H30  1  0.93033500  0.46015400  0.75286100  1
  H  H31  1  0.43033500  0.53984600  0.24713900  1
  H  H32  1  0.25000000  0.50131800  0.83021300  1
  H  H33  1  0.75000000  0.49868200  0.16978700  1
  H  H34  1  0.25000000  0.73990600  0.78300300  1
  H  H35  1  0.75000000  0.26009400  0.21699700  1
  O  O36  1  0.25000000  0.05812300  0.01693600  1
  O  O37  1  0.75000000  0.94187700  0.98306400  1
  O  O38  1  0.36742200  0.22754200  0.07767800  1
  O  O39  1  0.86742200  0.77245800  0.92232200  1
  O  O40  1  0.63257800  0.77245800  0.92232200  1
  O  O41  1  0.13257800  0.22754200  0.07767800  1
  O  O42  1  0.33944000  0.26392700  0.80837000  1
  O  O43  1  0.83944000  0.73607300  0.19163000  1
  O  O44  1  0.66056000  0.73607300  0.19163000  1
  O  O45  1  0.16056000  0.26392700  0.80837000  1
  O  O46  1  0.37613900  0.90855800  0.98927100  1
  O  O47  1  0.87613900  0.09144200  0.01072900  1
  O  O48  1  0.62386100  0.09144200  0.01072900  1
  O  O49  1  0.12386100  0.90855800  0.98927100  1
  O  O50  1  0.46625400  0.11864200  0.28977500  1
  O  O51  1  0.96625400  0.88135800  0.71022500  1
  O  O52  1  0.53374600  0.88135800  0.71022500  1
  O  O53  1  0.03374600  0.11864200  0.28977500  1
  O  O54  1  0.34819300  0.32426000  0.31383200  1
  O  O55  1  0.84819300  0.67574000  0.68616800  1
  O  O56  1  0.65180700  0.67574000  0.68616800  1
  O  O57  1  0.15180700  0.32426000  0.31383200  1
  O  O58  1  0.33618400  0.94990100  0.31409000  1
  O  O59  1  0.83618400  0.05009900  0.68591000  1
  O  O60  1  0.66381600  0.05009900  0.68591000  1
  O  O61  1  0.16381600  0.94990100  0.31409000  1
  O  O62  1  0.33771900  0.91644000  0.59598800  1
  O  O63  1  0.83771900  0.08356000  0.40401200  1
  O  O64  1  0.66228100  0.08356000  0.40401200  1
  O  O65  1  0.16228100  0.91644000  0.59598800  1
  O  O66  1  0.39034300  0.62695900  0.50110400  1
  O  O67  1  0.89034300  0.37304100  0.49889600  1
  O  O68  1  0.60965700  0.37304100  0.49889600  1
  O  O69  1  0.10965700  0.62695900  0.50110400  1
  O  O70  1  0.25000000  0.69785700  0.48296300  1
  O  O71  1  0.75000000  0.30214300  0.51703700  1
  O  O72  1  0.02990900  0.62465100  0.18506800  1
  O  O73  1  0.52990900  0.37534900  0.81493200  1
  O  O74  1  0.97009100  0.37534900  0.81493200  1
  O  O75  1  0.47009100  0.62465100  0.18506800  1
  O  O76  1  0.25000000  0.61796600  0.87012300  1
  O  O77  1  0.75000000  0.38203400  0.12987700  1
