# generated using pymatgen
data_BaLa3TiCr3O12
_symmetry_space_group_name_H-M   'P 1'
_cell_length_a   11.17721600
_cell_length_b   5.60077600
_cell_length_c   7.92704114
_cell_angle_alpha   89.40242338
_cell_angle_beta   90.00000000
_cell_angle_gamma   90.00000000
_symmetry_Int_Tables_number   1
_chemical_formula_structural   BaLa3TiCr3O12
_chemical_formula_sum   'Ba2 La6 Ti2 Cr6 O24'
_cell_volume   496.21437147
_cell_formula_units_Z   2
loop_
 _symmetry_equiv_pos_site_id
 _symmetry_equiv_pos_as_xyz
  1  'x, y, z'
loop_
 _atom_site_type_symbol
 _atom_site_label
 _atom_site_symmetry_multiplicity
 _atom_site_fract_x
 _atom_site_fract_y
 _atom_site_fract_z
 _atom_site_occupancy
  Ba  Ba0  1  0.00263200  0.50000000  0.75000000  1
  Ba  Ba1  1  0.99736800  0.50000000  0.25000000  1
  La  La2  1  0.74843200  0.00000000  0.25000000  1
  La  La3  1  0.49344700  0.50000000  0.75000000  1
  La  La4  1  0.25417900  0.00000000  0.25000000  1
  La  La5  1  0.74582100  0.00000000  0.75000000  1
  La  La6  1  0.50655300  0.50000000  0.25000000  1
  La  La7  1  0.25156800  0.00000000  0.75000000  1
  Ti  Ti8  1  0.00000000  0.00000000  0.50000000  1
  Ti  Ti9  1  0.00000000  0.00000000  0.00000000  1
  Cr  Cr10  1  0.74710500  0.50357500  0.99945900  1
  Cr  Cr11  1  0.50000000  0.00000000  0.50000000  1
  Cr  Cr12  1  0.74710500  0.49642500  0.50054100  1
  Cr  Cr13  1  0.50000000  0.00000000  0.00000000  1
  Cr  Cr14  1  0.25289500  0.50357500  0.49945900  1
  Cr  Cr15  1  0.25289500  0.49642500  0.00054100  1
  O  O16  1  0.86008100  0.22052400  0.97932200  1
  O  O17  1  0.97725400  0.00000000  0.25000000  1
  O  O18  1  0.86008100  0.77947600  0.52067800  1
  O  O19  1  0.60667500  0.71601800  0.47190400  1
  O  O20  1  0.88072700  0.74824300  0.97951400  1
  O  O21  1  0.71530700  0.50000000  0.75000000  1
  O  O22  1  0.75923900  0.50000000  0.25000000  1
  O  O23  1  0.60667500  0.28398200  0.02809600  1
  O  O24  1  0.88072700  0.25175700  0.52048600  1
  O  O25  1  0.35894000  0.21118300  0.96916200  1
  O  O26  1  0.64106000  0.21118300  0.46916200  1
  O  O27  1  0.46821700  0.00000000  0.25000000  1
  O  O28  1  0.53178300  0.00000000  0.75000000  1
  O  O29  1  0.35894000  0.78881700  0.53083800  1
  O  O30  1  0.64106000  0.78881700  0.03083800  1
  O  O31  1  0.11927300  0.74824300  0.47951400  1
  O  O32  1  0.39332500  0.71601800  0.97190400  1
  O  O33  1  0.24076100  0.50000000  0.75000000  1
  O  O34  1  0.28469300  0.50000000  0.25000000  1
  O  O35  1  0.11927300  0.25175700  0.02048600  1
  O  O36  1  0.39332500  0.28398200  0.52809600  1
  O  O37  1  0.13991900  0.22052400  0.47932200  1
  O  O38  1  0.02274600  0.00000000  0.75000000  1
  O  O39  1  0.13991900  0.77947600  0.02067800  1
