# generated using pymatgen
data_Ba(HO)2
_symmetry_space_group_name_H-M   'P 1'
_cell_length_a   11.12017000
_cell_length_b   7.22072100
_cell_length_c   18.12338207
_cell_angle_alpha   67.52841279
_cell_angle_beta   90.00000000
_cell_angle_gamma   90.00000000
_symmetry_Int_Tables_number   1
_chemical_formula_structural   Ba(HO)2
_chemical_formula_sum   'Ba20 H40 O40'
_cell_volume   1344.73196410
_cell_formula_units_Z   20
loop_
 _symmetry_equiv_pos_site_id
 _symmetry_equiv_pos_as_xyz
  1  'x, y, z'
loop_
 _atom_site_type_symbol
 _atom_site_label
 _atom_site_symmetry_multiplicity
 _atom_site_fract_x
 _atom_site_fract_y
 _atom_site_fract_z
 _atom_site_occupancy
  Ba  Ba0  1  0.82246900  0.18695600  0.74702000  1
  Ba  Ba1  1  0.67753100  0.18695600  0.24702000  1
  Ba  Ba2  1  0.17753100  0.81304400  0.25298000  1
  Ba  Ba3  1  0.32246900  0.81304400  0.75298000  1
  Ba  Ba4  1  0.97635900  0.53525300  0.87608800  1
  Ba  Ba5  1  0.52364100  0.53525300  0.37608800  1
  Ba  Ba6  1  0.02364100  0.46474700  0.12391200  1
  Ba  Ba7  1  0.47635900  0.46474700  0.62391200  1
  Ba  Ba8  1  0.52046200  0.79436700  0.12493800  1
  Ba  Ba9  1  0.97953800  0.79436700  0.62493800  1
  Ba  Ba10  1  0.47953800  0.20563300  0.87506200  1
  Ba  Ba11  1  0.02046200  0.20563300  0.37506200  1
  Ba  Ba12  1  0.83007200  0.94152600  0.98852500  1
  Ba  Ba13  1  0.66992800  0.94152600  0.48852500  1
  Ba  Ba14  1  0.16992800  0.05847400  0.01147500  1
  Ba  Ba15  1  0.33007200  0.05847400  0.51147500  1
  Ba  Ba16  1  0.66926100  0.42329800  0.00842900  1
  Ba  Ba17  1  0.83073900  0.42329800  0.50842900  1
  Ba  Ba18  1  0.33073900  0.57670200  0.99157100  1
  Ba  Ba19  1  0.16926100  0.57670200  0.49157100  1
  H  H20  1  0.56102300  0.03041900  0.72729800  1
  H  H21  1  0.93897700  0.03041900  0.22729800  1
  H  H22  1  0.43897700  0.96958100  0.27270200  1
  H  H23  1  0.06102300  0.96958100  0.77270200  1
  H  H24  1  0.78772300  0.68312600  0.75396900  1
  H  H25  1  0.71227700  0.68312600  0.25396900  1
  H  H26  1  0.21227700  0.31687400  0.24603100  1
  H  H27  1  0.28772300  0.31687400  0.74603100  1
  H  H28  1  0.07953100  0.21087400  0.83098500  1
  H  H29  1  0.42046900  0.21087400  0.33098500  1
  H  H30  1  0.92046900  0.78912600  0.16901500  1
  H  H31  1  0.57953100  0.78912600  0.66901500  1
  H  H32  1  0.43102600  0.34764000  0.16580400  1
  H  H33  1  0.06897400  0.34764000  0.66580400  1
  H  H34  1  0.56897400  0.65236000  0.83419600  1
  H  H35  1  0.93102600  0.65236000  0.33419600  1
  H  H36  1  0.70685500  0.82120100  0.85955200  1
  H  H37  1  0.79314500  0.82120100  0.35955200  1
  H  H38  1  0.29314500  0.17879900  0.14044800  1
  H  H39  1  0.20685500  0.17879900  0.64044800  1
  H  H40  1  0.79055700  0.01564400  0.13787800  1
  H  H41  1  0.70944300  0.01564400  0.63787800  1
  H  H42  1  0.20944300  0.98435600  0.86212200  1
  H  H43  1  0.29055700  0.98435600  0.36212200  1
  H  H44  1  0.74040200  0.39091900  0.84497000  1
  H  H45  1  0.75959800  0.39091900  0.34497000  1
  H  H46  1  0.25959800  0.60908100  0.15503000  1
  H  H47  1  0.24040200  0.60908100  0.65503000  1
  H  H48  1  0.75726700  0.58521200  0.15264000  1
  H  H49  1  0.74273300  0.58521200  0.65264000  1
  H  H50  1  0.24273300  0.41478800  0.84736000  1
  H  H51  1  0.25726700  0.41478800  0.34736000  1
  H  H52  1  0.54740400  0.79113000  0.92610200  1
  H  H53  1  0.95259600  0.79113000  0.42610200  1
  H  H54  1  0.45259600  0.20887000  0.07389800  1
  H  H55  1  0.04740400  0.20887000  0.57389800  1
  H  H56  1  0.94729100  0.15046900  0.07258900  1
  H  H57  1  0.55270900  0.15046900  0.57258900  1
  H  H58  1  0.05270900  0.84953100  0.92741100  1
  H  H59  1  0.44729100  0.84953100  0.42741100  1
  O  O60  1  0.57597300  0.13122700  0.74944200  1
  O  O61  1  0.92402700  0.13122700  0.24944200  1
  O  O62  1  0.42402700  0.86877300  0.25055800  1
  O  O63  1  0.07597300  0.86877300  0.75055800  1
  O  O64  1  0.82214400  0.56339700  0.74988800  1
  O  O65  1  0.67785600  0.56339700  0.24988800  1
  O  O66  1  0.17785600  0.43660300  0.25011200  1
  O  O67  1  0.32214400  0.43660300  0.75011200  1
  O  O68  1  0.00859900  0.14501900  0.86123200  1
  O  O69  1  0.49140100  0.14501900  0.36123200  1
  O  O70  1  0.99140100  0.85498100  0.13876800  1
  O  O71  1  0.50859900  0.85498100  0.63876800  1
  O  O72  1  0.50178600  0.39644500  0.13233200  1
  O  O73  1  0.99821400  0.39644500  0.63233200  1
  O  O74  1  0.49821400  0.60355500  0.86766800  1
  O  O75  1  0.00178600  0.60355500  0.36766800  1
  O  O76  1  0.79075500  0.78548500  0.87323900  1
  O  O77  1  0.70924500  0.78548500  0.37323900  1
  O  O78  1  0.20924500  0.21451500  0.12676100  1
  O  O79  1  0.29075500  0.21451500  0.62676100  1
  O  O80  1  0.70775800  0.04455900  0.11930000  1
  O  O81  1  0.79224200  0.04455900  0.61930000  1
  O  O82  1  0.29224200  0.95544100  0.88070000  1
  O  O83  1  0.20775800  0.95544100  0.38070000  1
  O  O84  1  0.72167100  0.26870000  0.89212300  1
  O  O85  1  0.77832900  0.26870000  0.39212300  1
  O  O86  1  0.27832900  0.73130000  0.10787700  1
  O  O87  1  0.22167100  0.73130000  0.60787700  1
  O  O88  1  0.78394300  0.56059700  0.10523600  1
  O  O89  1  0.71605700  0.56059700  0.60523600  1
  O  O90  1  0.21605700  0.43940300  0.89476400  1
  O  O91  1  0.28394300  0.43940300  0.39476400  1
  O  O92  1  0.55857600  0.81476700  0.97561000  1
  O  O93  1  0.94142400  0.81476700  0.47561000  1
  O  O94  1  0.44142400  0.18523300  0.02439000  1
  O  O95  1  0.05857600  0.18523300  0.52439000  1
  O  O96  1  0.94722300  0.27051800  0.02289000  1
  O  O97  1  0.55277700  0.27051800  0.52289000  1
  O  O98  1  0.05277700  0.72948200  0.97711000  1
  O  O99  1  0.44722300  0.72948200  0.47711000  1
