# generated using pymatgen
data_CoSiO3
_symmetry_space_group_name_H-M   'P 1'
_cell_length_a   5.26457500
_cell_length_b   9.04431400
_cell_length_c   18.46385800
_cell_angle_alpha   90.00000000
_cell_angle_beta   90.00000000
_cell_angle_gamma   90.00000000
_symmetry_Int_Tables_number   1
_chemical_formula_structural   CoSiO3
_chemical_formula_sum   'Co16 Si16 O48'
_cell_volume   879.14680131
_cell_formula_units_Z   16
loop_
 _symmetry_equiv_pos_site_id
 _symmetry_equiv_pos_as_xyz
  1  'x, y, z'
loop_
 _atom_site_type_symbol
 _atom_site_label
 _atom_site_symmetry_multiplicity
 _atom_site_fract_x
 _atom_site_fract_y
 _atom_site_fract_z
 _atom_site_occupancy
  Co  Co0  1  0.62486600  0.15332800  0.37607700  1
  Co  Co1  1  0.86392300  0.00945800  0.62305700  1
  Co  Co2  1  0.63607700  0.00945800  0.12305700  1
  Co  Co3  1  0.13607700  0.49054200  0.12305700  1
  Co  Co4  1  0.13607700  0.99054200  0.37694300  1
  Co  Co5  1  0.37513400  0.34667200  0.87607700  1
  Co  Co6  1  0.37513400  0.84667200  0.62392300  1
  Co  Co7  1  0.36392300  0.99054200  0.87694300  1
  Co  Co8  1  0.86392300  0.50945800  0.87694300  1
  Co  Co9  1  0.62486600  0.65332800  0.12392300  1
  Co  Co10  1  0.87513400  0.65332800  0.62392300  1
  Co  Co11  1  0.63607700  0.50945800  0.37694300  1
  Co  Co12  1  0.87513400  0.15332800  0.87607700  1
  Co  Co13  1  0.12486600  0.34667200  0.37607700  1
  Co  Co14  1  0.36392300  0.49054200  0.62305700  1
  Co  Co15  1  0.12486600  0.84667200  0.12392300  1
  Si  Si16  1  0.55440600  0.15982700  0.72791600  1
  Si  Si17  1  0.29076900  0.66476500  0.97256900  1
  Si  Si18  1  0.70923100  0.33523500  0.02743100  1
  Si  Si19  1  0.05440600  0.84017300  0.77208400  1
  Si  Si20  1  0.79076900  0.33523500  0.52743100  1
  Si  Si21  1  0.55440600  0.65982700  0.77208400  1
  Si  Si22  1  0.94559400  0.15982700  0.22791600  1
  Si  Si23  1  0.20923100  0.16476500  0.02743100  1
  Si  Si24  1  0.44559400  0.34017300  0.22791600  1
  Si  Si25  1  0.05440600  0.34017300  0.72791600  1
  Si  Si26  1  0.79076900  0.83523500  0.97256900  1
  Si  Si27  1  0.70923100  0.83523500  0.47256900  1
  Si  Si28  1  0.29076900  0.16476500  0.52743100  1
  Si  Si29  1  0.94559400  0.65982700  0.27208400  1
  Si  Si30  1  0.44559400  0.84017300  0.27208400  1
  Si  Si31  1  0.20923100  0.66476500  0.47256900  1
  O  O32  1  0.78930900  0.83856400  0.06153500  1
  O  O33  1  0.04228100  0.83936000  0.68344100  1
  O  O34  1  0.90857600  0.19933400  0.05257000  1
  O  O35  1  0.04228100  0.33936000  0.81655900  1
  O  O36  1  0.54228100  0.16064000  0.81655900  1
  O  O37  1  0.71069100  0.83856400  0.56153500  1
  O  O38  1  0.82654700  0.73078200  0.80257700  1
  O  O39  1  0.09142400  0.80066600  0.94743000  1
  O  O40  1  0.45771900  0.33936000  0.31655900  1
  O  O41  1  0.59142400  0.19933400  0.55257000  1
  O  O42  1  0.94075400  0.49860100  0.31035600  1
  O  O43  1  0.69118600  0.48224500  0.56836300  1
  O  O44  1  0.40857600  0.80066600  0.44743000  1
  O  O45  1  0.28930900  0.66143600  0.06153500  1
  O  O46  1  0.67345300  0.23078200  0.19742300  1
  O  O47  1  0.17345300  0.26921800  0.19742300  1
  O  O48  1  0.44075400  0.00139900  0.31035600  1
  O  O49  1  0.30881400  0.51775500  0.43163700  1
  O  O50  1  0.55924600  0.49860100  0.81035600  1
  O  O51  1  0.67345300  0.73078200  0.30257700  1
  O  O52  1  0.80881400  0.48224500  0.06836300  1
  O  O53  1  0.94075400  0.99860100  0.18964400  1
  O  O54  1  0.59142400  0.69933400  0.94743000  1
  O  O55  1  0.90857600  0.69933400  0.44743000  1
  O  O56  1  0.95771900  0.66064000  0.18344100  1
  O  O57  1  0.71069100  0.33856400  0.93846500  1
  O  O58  1  0.80881400  0.98224500  0.43163700  1
  O  O59  1  0.05924600  0.50139900  0.68964400  1
  O  O60  1  0.55924600  0.99860100  0.68964400  1
  O  O61  1  0.17345300  0.76921800  0.30257700  1
  O  O62  1  0.21069100  0.16143600  0.93846500  1
  O  O63  1  0.54228100  0.66064000  0.68344100  1
  O  O64  1  0.44075400  0.50139900  0.18964400  1
  O  O65  1  0.40857600  0.30066600  0.05257000  1
  O  O66  1  0.28930900  0.16143600  0.43846500  1
  O  O67  1  0.82654700  0.23078200  0.69742300  1
  O  O68  1  0.19118600  0.01775500  0.56836300  1
  O  O69  1  0.05924600  0.00139900  0.81035600  1
  O  O70  1  0.45771900  0.83936000  0.18344100  1
  O  O71  1  0.32654700  0.76921800  0.80257700  1
  O  O72  1  0.78930900  0.33856400  0.43846500  1
  O  O73  1  0.32654700  0.26921800  0.69742300  1
  O  O74  1  0.69118600  0.98224500  0.93163700  1
  O  O75  1  0.19118600  0.51775500  0.93163700  1
  O  O76  1  0.95771900  0.16064000  0.31655900  1
  O  O77  1  0.09142400  0.30066600  0.55257000  1
  O  O78  1  0.21069100  0.66143600  0.56153500  1
  O  O79  1  0.30881400  0.01775500  0.06836300  1
