# generated using pymatgen
data_KMoCl4O
_symmetry_space_group_name_H-M   'P 1'
_cell_length_a   9.29994500
_cell_length_b   6.88229500
_cell_length_c   23.90064313
_cell_angle_alpha   86.69993821
_cell_angle_beta   90.00000000
_cell_angle_gamma   90.00000000
_symmetry_Int_Tables_number   1
_chemical_formula_structural   KMoCl4O
_chemical_formula_sum   'K8 Mo8 Cl32 O8'
_cell_volume   1527.22310929
_cell_formula_units_Z   8
loop_
 _symmetry_equiv_pos_site_id
 _symmetry_equiv_pos_as_xyz
  1  'x, y, z'
loop_
 _atom_site_type_symbol
 _atom_site_label
 _atom_site_symmetry_multiplicity
 _atom_site_fract_x
 _atom_site_fract_y
 _atom_site_fract_z
 _atom_site_occupancy
  K  K0  1  0.48489200  0.24689300  0.23679100  1
  K  K1  1  0.98489200  0.75310700  0.26320900  1
  K  K2  1  0.28293700  0.19076600  0.46591500  1
  K  K3  1  0.01510800  0.24689300  0.73679100  1
  K  K4  1  0.78293700  0.80923400  0.03408500  1
  K  K5  1  0.71706300  0.80923400  0.53408500  1
  K  K6  1  0.51510800  0.75310700  0.76320900  1
  K  K7  1  0.21706300  0.19076600  0.96591500  1
  Mo  Mo8  1  0.98181400  0.72455300  0.86406400  1
  Mo  Mo9  1  0.38739900  0.77429100  0.12129500  1
  Mo  Mo10  1  0.88739900  0.22570900  0.37870500  1
  Mo  Mo11  1  0.48181400  0.27544700  0.63593600  1
  Mo  Mo12  1  0.01818600  0.27544700  0.13593600  1
  Mo  Mo13  1  0.11260100  0.77429100  0.62129500  1
  Mo  Mo14  1  0.61260100  0.22570900  0.87870500  1
  Mo  Mo15  1  0.51818600  0.72455300  0.36406400  1
  Cl  Cl16  1  0.57013700  0.23831400  0.97648800  1
  Cl  Cl17  1  0.35570900  0.87332800  0.59740500  1
  Cl  Cl18  1  0.80186000  0.34919800  0.28934500  1
  Cl  Cl19  1  0.58939800  0.56024200  0.13415000  1
  Cl  Cl20  1  0.42986300  0.76168600  0.02351200  1
  Cl  Cl21  1  0.91060200  0.56024200  0.63415000  1
  Cl  Cl22  1  0.92942300  0.27044400  0.04199200  1
  Cl  Cl23  1  0.30186000  0.65080200  0.21065500  1
  Cl  Cl24  1  0.35845200  0.15575200  0.71840300  1
  Cl  Cl25  1  0.57057700  0.27044400  0.54199200  1
  Cl  Cl26  1  0.85570900  0.12667200  0.90259500  1
  Cl  Cl27  1  0.14429100  0.87332800  0.09740500  1
  Cl  Cl28  1  0.64429100  0.12667200  0.40259500  1
  Cl  Cl29  1  0.69814000  0.34919800  0.78934500  1
  Cl  Cl30  1  0.92986300  0.23831400  0.47648800  1
  Cl  Cl31  1  0.41060200  0.43975800  0.86585000  1
  Cl  Cl32  1  0.24656500  0.36740500  0.09461800  1
  Cl  Cl33  1  0.16950200  0.95288100  0.84054100  1
  Cl  Cl34  1  0.74656500  0.63259500  0.40538200  1
  Cl  Cl35  1  0.25343500  0.36740500  0.59461800  1
  Cl  Cl36  1  0.66950200  0.04711900  0.65945900  1
  Cl  Cl37  1  0.19814000  0.65080200  0.71065500  1
  Cl  Cl38  1  0.08939800  0.43975800  0.36585000  1
  Cl  Cl39  1  0.64154800  0.84424800  0.28159700  1
  Cl  Cl40  1  0.07057700  0.72955600  0.95800800  1
  Cl  Cl41  1  0.14154800  0.15575200  0.21840300  1
  Cl  Cl42  1  0.33049800  0.95288100  0.34054100  1
  Cl  Cl43  1  0.83049800  0.04711900  0.15945900  1
  Cl  Cl44  1  0.75343500  0.63259500  0.90538200  1
  Cl  Cl45  1  0.85845200  0.84424800  0.78159700  1
  Cl  Cl46  1  0.42942300  0.72955600  0.45800800  1
  Cl  Cl47  1  0.07013700  0.76168600  0.52351200  1
  O  O48  1  0.95356900  0.49122600  0.15676700  1
  O  O49  1  0.54002700  0.00946800  0.86281000  1
  O  O50  1  0.95997300  0.00946800  0.36281000  1
  O  O51  1  0.54643100  0.49122600  0.65676700  1
  O  O52  1  0.04002700  0.99053200  0.63719000  1
  O  O53  1  0.45997300  0.99053200  0.13719000  1
  O  O54  1  0.45356900  0.50877400  0.34323300  1
  O  O55  1  0.04643100  0.50877400  0.84323300  1
