# generated using pymatgen
data_SrAl12O19
_symmetry_space_group_name_H-M   'P 1'
_cell_length_a   5.62655649
_cell_length_b   5.62655649
_cell_length_c   22.15984000
_cell_angle_alpha   90.00000000
_cell_angle_beta   90.00000000
_cell_angle_gamma   120.00000579
_symmetry_Int_Tables_number   1
_chemical_formula_structural   SrAl12O19
_chemical_formula_sum   'Sr2 Al24 O38'
_cell_volume   607.55079576
_cell_formula_units_Z   2
loop_
 _symmetry_equiv_pos_site_id
 _symmetry_equiv_pos_as_xyz
  1  'x, y, z'
loop_
 _atom_site_type_symbol
 _atom_site_label
 _atom_site_symmetry_multiplicity
 _atom_site_fract_x
 _atom_site_fract_y
 _atom_site_fract_z
 _atom_site_occupancy
  Sr  Sr0  1  0.33333300  0.66666700  0.75000000  1
  Sr  Sr1  1  0.66666700  0.33333300  0.25000000  1
  Al  Al2  1  0.33333300  0.66666700  0.30956800  1
  Al  Al3  1  0.66666700  0.33333300  0.80956800  1
  Al  Al4  1  0.66666700  0.33333300  0.69043200  1
  Al  Al5  1  0.33333300  0.66666700  0.19043200  1
  Al  Al6  1  0.16825600  0.83174400  0.60878600  1
  Al  Al7  1  0.16825600  0.33651100  0.60878600  1
  Al  Al8  1  0.66348900  0.83174400  0.60878600  1
  Al  Al9  1  0.33651100  0.16825600  0.10878600  1
  Al  Al10  1  0.83174400  0.66348900  0.39121400  1
  Al  Al11  1  0.83174400  0.16825600  0.10878600  1
  Al  Al12  1  0.83174400  0.66348900  0.10878600  1
  Al  Al13  1  0.16825600  0.83174400  0.89121400  1
  Al  Al14  1  0.66348900  0.83174400  0.89121400  1
  Al  Al15  1  0.33651100  0.16825600  0.39121400  1
  Al  Al16  1  0.83174400  0.16825600  0.39121400  1
  Al  Al17  1  0.16825600  0.33651100  0.89121400  1
  Al  Al18  1  0.33333300  0.66666700  0.47179200  1
  Al  Al19  1  0.66666700  0.33333300  0.97179200  1
  Al  Al20  1  0.66666700  0.33333300  0.52820800  1
  Al  Al21  1  0.33333300  0.66666700  0.02820800  1
  Al  Al22  1  0.00000000  0.00000000  0.75000000  1
  Al  Al23  1  0.00000000  0.00000000  0.25000000  1
  Al  Al24  1  0.00000000  0.00000000  0.50000000  1
  Al  Al25  1  0.00000000  0.00000000  0.00000000  1
  O  O26  1  0.50246600  0.49753400  0.35175600  1
  O  O27  1  0.50246600  0.00493100  0.35175600  1
  O  O28  1  0.99506900  0.49753400  0.35175600  1
  O  O29  1  0.00493100  0.50246600  0.85175600  1
  O  O30  1  0.49753400  0.99506900  0.64824400  1
  O  O31  1  0.49753400  0.50246600  0.85175600  1
  O  O32  1  0.49753400  0.99506900  0.85175600  1
  O  O33  1  0.50246600  0.49753400  0.14824400  1
  O  O34  1  0.99506900  0.49753400  0.14824400  1
  O  O35  1  0.00493100  0.50246600  0.64824400  1
  O  O36  1  0.49753400  0.50246600  0.64824400  1
  O  O37  1  0.50246600  0.00493100  0.14824400  1
  O  O38  1  0.15493300  0.84506700  0.44808200  1
  O  O39  1  0.15493300  0.30986600  0.44808200  1
  O  O40  1  0.69013400  0.84506700  0.44808200  1
  O  O41  1  0.63680600  0.81840300  0.25000000  1
  O  O42  1  0.30986600  0.15493300  0.94808200  1
  O  O43  1  0.84506700  0.15493300  0.94808200  1
  O  O44  1  0.84506700  0.69013400  0.94808200  1
  O  O45  1  0.15493300  0.84506700  0.05191800  1
  O  O46  1  0.69013400  0.84506700  0.05191800  1
  O  O47  1  0.30986600  0.15493300  0.55191800  1
  O  O48  1  0.84506700  0.15493300  0.55191800  1
  O  O49  1  0.15493300  0.30986600  0.05191800  1
  O  O50  1  0.81840300  0.63680600  0.75000000  1
  O  O51  1  0.18159700  0.81840300  0.25000000  1
  O  O52  1  0.00000000  0.00000000  0.14928800  1
  O  O53  1  0.00000000  0.00000000  0.64928800  1
  O  O54  1  0.00000000  0.00000000  0.85071200  1
  O  O55  1  0.00000000  0.00000000  0.35071200  1
  O  O56  1  0.33333300  0.66666700  0.94566500  1
  O  O57  1  0.66666700  0.33333300  0.44566500  1
  O  O58  1  0.66666700  0.33333300  0.05433500  1
  O  O59  1  0.33333300  0.66666700  0.55433500  1
  O  O60  1  0.18159700  0.36319400  0.25000000  1
  O  O61  1  0.81840300  0.18159700  0.75000000  1
  O  O62  1  0.36319400  0.18159700  0.75000000  1
  O  O63  1  0.84506700  0.69013400  0.55191800  1
