# generated using pymatgen
data_HfMoP
_symmetry_space_group_name_H-M   'P 1'
_cell_length_a   6.93142240
_cell_length_b   6.93142240
_cell_length_c   3.41441000
_cell_angle_alpha   90.00000000
_cell_angle_beta   90.00000000
_cell_angle_gamma   120.00000383
_symmetry_Int_Tables_number   1
_chemical_formula_structural   HfMoP
_chemical_formula_sum   'Hf3 Mo3 P3'
_cell_volume   142.06628235
_cell_formula_units_Z   3
loop_
 _symmetry_equiv_pos_site_id
 _symmetry_equiv_pos_as_xyz
  1  'x, y, z'
loop_
 _atom_site_type_symbol
 _atom_site_label
 _atom_site_symmetry_multiplicity
 _atom_site_fract_x
 _atom_site_fract_y
 _atom_site_fract_z
 _atom_site_occupancy
  Hf  Hf0  1  0.00000000  0.59671000  0.50000000  1
  Hf  Hf1  1  0.40329000  0.40329000  0.50000000  1
  Hf  Hf2  1  0.59671000  0.00000000  0.50000000  1
  Mo  Mo3  1  0.25300000  0.00000000  0.00000000  1
  Mo  Mo4  1  0.74700000  0.74700000  0.00000000  1
  Mo  Mo5  1  0.00000000  0.25300000  0.00000000  1
  P  P6  1  0.66666700  0.33333300  0.00000000  1
  P  P7  1  0.33333300  0.66666700  0.00000000  1
  P  P8  1  0.00000000  0.00000000  0.50000000  1
