# generated using pymatgen
data_RbPH4O5
_symmetry_space_group_name_H-M   'P 1'
_cell_length_a   7.82936900
_cell_length_b   7.34085600
_cell_length_c   9.57589188
_cell_angle_alpha   75.92574888
_cell_angle_beta   90.00000000
_cell_angle_gamma   90.00000000
_symmetry_Int_Tables_number   1
_chemical_formula_structural   RbPH4O5
_chemical_formula_sum   'Rb4 P4 H16 O20'
_cell_volume   533.84613973
_cell_formula_units_Z   4
loop_
 _symmetry_equiv_pos_site_id
 _symmetry_equiv_pos_as_xyz
  1  'x, y, z'
loop_
 _atom_site_type_symbol
 _atom_site_label
 _atom_site_symmetry_multiplicity
 _atom_site_fract_x
 _atom_site_fract_y
 _atom_site_fract_z
 _atom_site_occupancy
  Rb  Rb0  1  0.77570800  0.18002400  0.46446800  1
  Rb  Rb1  1  0.27570800  0.81997600  0.03553200  1
  Rb  Rb2  1  0.22429200  0.81997600  0.53553200  1
  Rb  Rb3  1  0.72429200  0.18002400  0.96446800  1
  P  P4  1  0.78899300  0.63437200  0.15771200  1
  P  P5  1  0.28899300  0.36562800  0.34228800  1
  P  P6  1  0.21100700  0.36562800  0.84228800  1
  P  P7  1  0.71100700  0.63437200  0.65771200  1
  H  H8  1  0.00183500  0.42595100  0.16909800  1
  H  H9  1  0.50183500  0.57404900  0.33090200  1
  H  H10  1  0.99816500  0.57404900  0.83090200  1
  H  H11  1  0.49816500  0.42595100  0.66909800  1
  H  H12  1  0.01952700  0.06779100  0.78127900  1
  H  H13  1  0.51952700  0.93220900  0.71872100  1
  H  H14  1  0.98047300  0.93220900  0.21872100  1
  H  H15  1  0.48047300  0.06779100  0.28127900  1
  H  H16  1  0.91868000  0.88141000  0.77456500  1
  H  H17  1  0.41868000  0.11859000  0.72543500  1
  H  H18  1  0.08132000  0.11859000  0.22543500  1
  H  H19  1  0.58132000  0.88141000  0.27456500  1
  H  H20  1  0.67762500  0.63997800  0.94874000  1
  H  H21  1  0.17762500  0.36002200  0.55126000  1
  H  H22  1  0.32237500  0.36002200  0.05126000  1
  H  H23  1  0.82237500  0.63997800  0.44874000  1
  O  O24  1  0.70469800  0.62314900  0.30436100  1
  O  O25  1  0.20469800  0.37685100  0.19563900  1
  O  O26  1  0.29530200  0.37685100  0.69563900  1
  O  O27  1  0.79530200  0.62314900  0.80436100  1
  O  O28  1  0.63414700  0.64513100  0.04698100  1
  O  O29  1  0.13414700  0.35486900  0.45301900  1
  O  O30  1  0.36585300  0.35486900  0.95301900  1
  O  O31  1  0.86585300  0.64513100  0.54698100  1
  O  O32  1  0.87291900  0.43496300  0.15872900  1
  O  O33  1  0.37291900  0.56503700  0.34127100  1
  O  O34  1  0.12708100  0.56503700  0.84127100  1
  O  O35  1  0.62708100  0.43496300  0.65872900  1
  O  O36  1  0.91443800  0.79359700  0.10910800  1
  O  O37  1  0.41443800  0.20640300  0.39089200  1
  O  O38  1  0.08556200  0.20640300  0.89089200  1
  O  O39  1  0.58556200  0.79359700  0.60910800  1
  O  O40  1  0.97534800  0.99268800  0.71532500  1
  O  O41  1  0.47534800  0.00731200  0.78467500  1
  O  O42  1  0.02465200  0.00731200  0.28467500  1
  O  O43  1  0.52465200  0.99268800  0.21532500  1
