# generated using pymatgen
data_Na5P3(H3O4)4
_symmetry_space_group_name_H-M   'P 1'
_cell_length_a   7.61166500
_cell_length_b   9.89439346
_cell_length_c   10.45307079
_cell_angle_alpha   90.72999825
_cell_angle_beta   94.76089004
_cell_angle_gamma   92.13686426
_symmetry_Int_Tables_number   1
_chemical_formula_structural   Na5P3(H3O4)4
_chemical_formula_sum   'Na10 P6 H24 O32'
_cell_volume   783.88922678
_cell_formula_units_Z   2
loop_
 _symmetry_equiv_pos_site_id
 _symmetry_equiv_pos_as_xyz
  1  'x, y, z'
loop_
 _atom_site_type_symbol
 _atom_site_label
 _atom_site_symmetry_multiplicity
 _atom_site_fract_x
 _atom_site_fract_y
 _atom_site_fract_z
 _atom_site_occupancy
  Na  Na0  1  0.90885600  0.06563800  0.11763500  1
  Na  Na1  1  0.09114400  0.93436200  0.88236500  1
  Na  Na2  1  0.95061800  0.41064400  0.13220600  1
  Na  Na3  1  0.04938200  0.58935600  0.86779400  1
  Na  Na4  1  0.58318000  0.06276800  0.86320900  1
  Na  Na5  1  0.41682000  0.93723200  0.13679100  1
  Na  Na6  1  0.22959600  0.24165100  0.33865900  1
  Na  Na7  1  0.77040400  0.75834900  0.66134100  1
  Na  Na8  1  0.57810500  0.44973000  0.85408500  1
  Na  Na9  1  0.42189500  0.55027000  0.14591500  1
  P  P10  1  0.74010400  0.25454600  0.60903000  1
  P  P11  1  0.25989600  0.74545400  0.39097000  1
  P  P12  1  0.95236300  0.26561900  0.85260800  1
  P  P13  1  0.04763700  0.73438100  0.14739200  1
  P  P14  1  0.28227900  0.23668200  0.00513100  1
  P  P15  1  0.71772100  0.76331800  0.99486900  1
  H  H16  1  0.61177300  0.28097800  0.10736600  1
  H  H17  1  0.38822700  0.71902200  0.89263400  1
  H  H18  1  0.67487400  0.23478000  0.24609200  1
  H  H19  1  0.32512600  0.76522000  0.75390800  1
  H  H20  1  0.89285200  0.09041300  0.41199600  1
  H  H21  1  0.10714800  0.90958700  0.58800400  1
  H  H22  1  0.05721200  0.00860700  0.38001600  1
  H  H23  1  0.94278800  0.99139300  0.61998400  1
  H  H24  1  0.91291200  0.39505100  0.41547700  1
  H  H25  1  0.08708800  0.60494900  0.58452300  1
  H  H26  1  0.07506600  0.48931500  0.38810100  1
  H  H27  1  0.92493400  0.51068500  0.61189900  1
  H  H28  1  0.55990900  0.41669200  0.39633900  1
  H  H29  1  0.44009100  0.58330800  0.60366100  1
  H  H30  1  0.38021100  0.48714400  0.39950500  1
  H  H31  1  0.61978900  0.51285600  0.60049500  1
  H  H32  1  0.17098900  0.24241800  0.61845900  1
  H  H33  1  0.82901100  0.75758200  0.38154100  1
  H  H34  1  0.37756600  0.25183300  0.61880600  1
  H  H35  1  0.62243400  0.74816700  0.38119400  1
  H  H36  1  0.44047000  0.91145700  0.59670300  1
  H  H37  1  0.55953000  0.08854300  0.40329700  1
  H  H38  1  0.60911100  0.00301000  0.62214400  1
  H  H39  1  0.39088900  0.99699000  0.37785600  1
  O  O40  1  0.93359400  0.26887900  0.69694200  1
  O  O41  1  0.06640600  0.73112100  0.30305800  1
  O  O42  1  0.16328600  0.28821900  0.87229500  1
  O  O43  1  0.83671400  0.71178100  0.12770500  1
  O  O44  1  0.87112900  0.38966800  0.90651000  1
  O  O45  1  0.12887100  0.61033200  0.09349000  1
  O  O46  1  0.89283200  0.12768200  0.89651700  1
  O  O47  1  0.10716800  0.87231800  0.10348300  1
  O  O48  1  0.74541700  0.38089700  0.52416700  1
  O  O49  1  0.25458300  0.61910300  0.47583300  1
  O  O50  1  0.74797600  0.12061300  0.53321200  1
  O  O51  1  0.25202400  0.87938700  0.46678800  1
  O  O52  1  0.59812600  0.25252000  0.70344300  1
  O  O53  1  0.40187400  0.74748000  0.29655700  1
  O  O54  1  0.43701800  0.34095800  0.01679500  1
  O  O55  1  0.56298200  0.65904200  0.98320500  1
  O  O56  1  0.33374500  0.09366200  0.97144500  1
  O  O57  1  0.66625500  0.90633800  0.02855500  1
  O  O58  1  0.16040700  0.24437800  0.11390400  1
  O  O59  1  0.83959300  0.75562200  0.88609600  1
  O  O60  1  0.71816600  0.25282500  0.16279300  1
  O  O61  1  0.28183400  0.74717500  0.83720700  1
  O  O62  1  0.97197600  0.07260000  0.34307700  1
  O  O63  1  0.02802400  0.92740000  0.65692300  1
  O  O64  1  0.00476300  0.40963500  0.35425000  1
  O  O65  1  0.99523700  0.59036500  0.64575000  1
  O  O66  1  0.44712400  0.42940600  0.34448800  1
  O  O67  1  0.55287600  0.57059400  0.65551200  1
  O  O68  1  0.26640500  0.24502200  0.56229200  1
  O  O69  1  0.73359500  0.75497800  0.43770800  1
  O  O70  1  0.54110800  0.92948000  0.66184700  1
  O  O71  1  0.45889200  0.07052000  0.33815300  1
