# generated using pymatgen
data_Ba5B20(H2O19)2
_symmetry_space_group_name_H-M   'P 1'
_cell_length_a   6.79687800
_cell_length_b   9.63173900
_cell_length_c   11.82094958
_cell_angle_alpha   85.03542288
_cell_angle_beta   90.00000000
_cell_angle_gamma   90.00000000
_symmetry_Int_Tables_number   1
_chemical_formula_structural   Ba5B20(H2O19)2
_chemical_formula_sum   'Ba5 B20 H4 O38'
_cell_volume   770.96414021
_cell_formula_units_Z   1
loop_
 _symmetry_equiv_pos_site_id
 _symmetry_equiv_pos_as_xyz
  1  'x, y, z'
loop_
 _atom_site_type_symbol
 _atom_site_label
 _atom_site_symmetry_multiplicity
 _atom_site_fract_x
 _atom_site_fract_y
 _atom_site_fract_z
 _atom_site_occupancy
  Ba  Ba0  1  0.99388800  0.00000000  0.00000000  1
  Ba  Ba1  1  0.23325900  0.61576700  0.30199900  1
  Ba  Ba2  1  0.23325900  0.38423300  0.69800100  1
  Ba  Ba3  1  0.74733500  0.38144700  0.17559200  1
  Ba  Ba4  1  0.74733500  0.61855300  0.82440800  1
  B  B5  1  0.73006600  0.71490800  0.14264500  1
  B  B6  1  0.73006600  0.28509200  0.85735500  1
  B  B7  1  0.06010300  0.63557800  0.03406900  1
  B  B8  1  0.06010300  0.36442200  0.96593100  1
  B  B9  1  0.21707100  0.04575000  0.30983400  1
  B  B10  1  0.21707100  0.95425000  0.69016600  1
  B  B11  1  0.71882800  0.93028100  0.24515500  1
  B  B12  1  0.71882800  0.06971900  0.75484500  1
  B  B13  1  0.42291600  0.67859000  0.00778000  1
  B  B14  1  0.42291600  0.32141000  0.99222000  1
  B  B15  1  0.69383400  0.70335000  0.35716200  1
  B  B16  1  0.69383400  0.29665000  0.64283800  1
  B  B17  1  0.92576900  0.34230200  0.48363800  1
  B  B18  1  0.92576900  0.65769800  0.51636200  1
  B  B19  1  0.19553800  0.24249600  0.15462100  1
  B  B20  1  0.19553800  0.75750400  0.84537900  1
  B  B21  1  0.22687400  0.28700800  0.36077400  1
  B  B22  1  0.22687400  0.71299200  0.63922600  1
  B  B23  1  0.57307000  0.32959200  0.44533800  1
  B  B24  1  0.57307000  0.67040800  0.55466200  1
  H  H25  1  0.23128000  0.88822800  0.42614100  1
  H  H26  1  0.23128000  0.11177200  0.57385900  1
  H  H27  1  0.73115300  0.10377500  0.31835700  1
  H  H28  1  0.73115300  0.89622500  0.68164300  1
  O  O29  1  0.72188000  0.87058600  0.14346500  1
  O  O30  1  0.72188000  0.12941400  0.85653500  1
  O  O31  1  0.21938400  0.90256000  0.34344800  1
  O  O32  1  0.21938400  0.09744000  0.65655200  1
  O  O33  1  0.27002900  0.63425400  0.07724800  1
  O  O34  1  0.27002900  0.36574600  0.92275200  1
  O  O35  1  0.19875000  0.09000100  0.19678700  1
  O  O36  1  0.19875000  0.90999900  0.80321300  1
  O  O37  1  0.64374600  0.64860900  0.24970500  1
  O  O38  1  0.64374600  0.35139100  0.75029500  1
  O  O39  1  0.77149400  0.31365900  0.40966000  1
  O  O40  1  0.77149400  0.68634100  0.59034000  1
  O  O41  1  0.04523400  0.25864300  0.06447200  1
  O  O42  1  0.04523400  0.74135700  0.93552800  1
  O  O43  1  0.99267500  0.50000000  0.00000000  1
  O  O44  1  0.93885500  0.67228200  0.13213400  1
  O  O45  1  0.93885500  0.32771800  0.86786600  1
  O  O46  1  0.22932600  0.13666400  0.39299200  1
  O  O47  1  0.22932600  0.86333600  0.60700800  1
  O  O48  1  0.73024000  0.07643800  0.24101100  1
  O  O49  1  0.73024000  0.92356200  0.75898900  1
  O  O50  1  0.71383800  0.85546000  0.34737900  1
  O  O51  1  0.71383800  0.14454000  0.65262100  1
  O  O52  1  0.61762400  0.67046300  0.04347200  1
  O  O53  1  0.61762400  0.32953700  0.95652800  1
  O  O54  1  0.39270800  0.28173000  0.10585500  1
  O  O55  1  0.39270800  0.71827000  0.89414500  1
  O  O56  1  0.53387700  0.66528300  0.44241300  1
  O  O57  1  0.53387700  0.33471700  0.55758700  1
  O  O58  1  0.88050000  0.63908900  0.40575800  1
  O  O59  1  0.88050000  0.36091100  0.59424200  1
  O  O60  1  0.11767100  0.35690600  0.44970400  1
  O  O61  1  0.11767100  0.64309400  0.55029600  1
  O  O62  1  0.14324600  0.32609200  0.24918600  1
  O  O63  1  0.14324600  0.67390800  0.75081400  1
  O  O64  1  0.43729900  0.34232300  0.35982500  1
  O  O65  1  0.43729900  0.65767700  0.64017500  1
  O  O66  1  0.40324300  0.00000000  0.00000000  1
