# generated using pymatgen
data_K2U2MoO10
_symmetry_space_group_name_H-M   'P 1'
_cell_length_a   15.58684700
_cell_length_b   8.39681100
_cell_length_c   8.43671710
_cell_angle_alpha   75.39204066
_cell_angle_beta   90.00000000
_cell_angle_gamma   90.00000000
_symmetry_Int_Tables_number   1
_chemical_formula_structural   K2U2MoO10
_chemical_formula_sum   'K8 U8 Mo4 O40'
_cell_volume   1068.50183917
_cell_formula_units_Z   4
loop_
 _symmetry_equiv_pos_site_id
 _symmetry_equiv_pos_as_xyz
  1  'x, y, z'
loop_
 _atom_site_type_symbol
 _atom_site_label
 _atom_site_symmetry_multiplicity
 _atom_site_fract_x
 _atom_site_fract_y
 _atom_site_fract_z
 _atom_site_occupancy
  K  K0  1  0.26387000  0.17513300  0.57465800  1
  K  K1  1  0.54196000  0.55542600  0.22632800  1
  K  K2  1  0.95804000  0.55542600  0.72632800  1
  K  K3  1  0.23613000  0.17513300  0.07465800  1
  K  K4  1  0.45804000  0.44457400  0.77367200  1
  K  K5  1  0.76387000  0.82486700  0.92534200  1
  K  K6  1  0.04196000  0.44457400  0.27367200  1
  K  K7  1  0.73613000  0.82486700  0.42534200  1
  U  U8  1  0.92879000  0.11619200  0.60585200  1
  U  U9  1  0.42879000  0.88380800  0.89414800  1
  U  U10  1  0.42583100  0.86605900  0.41729300  1
  U  U11  1  0.07416900  0.86605900  0.91729300  1
  U  U12  1  0.07121000  0.88380800  0.39414800  1
  U  U13  1  0.57121000  0.11619200  0.10585200  1
  U  U14  1  0.57416900  0.13394100  0.58270700  1
  U  U15  1  0.92583100  0.13394100  0.08270700  1
  Mo  Mo16  1  0.76327300  0.37824000  0.29016500  1
  Mo  Mo17  1  0.73672700  0.37824000  0.79016500  1
  Mo  Mo18  1  0.26327300  0.62176000  0.20983500  1
  Mo  Mo19  1  0.23672700  0.62176000  0.70983500  1
  O  O20  1  0.95666700  0.02682000  0.86829900  1
  O  O21  1  0.33182800  0.75285200  0.67939500  1
  O  O22  1  0.04333300  0.97318000  0.13170100  1
  O  O23  1  0.46578900  0.90192900  0.14517500  1
  O  O24  1  0.49261700  0.28455000  0.09363100  1
  O  O25  1  0.66576900  0.33566400  0.96479500  1
  O  O26  1  0.49941000  0.69044400  0.49004700  1
  O  O27  1  0.65584500  0.95952400  0.12025200  1
  O  O28  1  0.34627600  0.03092500  0.34572800  1
  O  O29  1  0.67106100  0.34438100  0.62577900  1
  O  O30  1  0.99941000  0.30955600  0.00995300  1
  O  O31  1  0.16817200  0.75285200  0.17939500  1
  O  O32  1  0.72918900  0.58606500  0.24144100  1
  O  O33  1  0.00738300  0.28455000  0.59363100  1
  O  O34  1  0.16576900  0.66433600  0.53520500  1
  O  O35  1  0.15372400  0.03092500  0.84572800  1
  O  O36  1  0.50059000  0.30955600  0.50995300  1
  O  O37  1  0.83423100  0.33566400  0.46479500  1
  O  O38  1  0.54333300  0.02682000  0.36829900  1
  O  O39  1  0.27081100  0.41393500  0.75855900  1
  O  O40  1  0.50738300  0.71545000  0.90636900  1
  O  O41  1  0.84627600  0.96907500  0.15427200  1
  O  O42  1  0.33423100  0.66433600  0.03520500  1
  O  O43  1  0.15584500  0.04047600  0.37974800  1
  O  O44  1  0.66817200  0.24714800  0.32060500  1
  O  O45  1  0.45666700  0.97318000  0.63170100  1
  O  O46  1  0.22918900  0.41393500  0.25855900  1
  O  O47  1  0.84415500  0.95952400  0.62025200  1
  O  O48  1  0.03421100  0.90192900  0.64517500  1
  O  O49  1  0.32893900  0.65561900  0.37422100  1
  O  O50  1  0.99261700  0.71545000  0.40636900  1
  O  O51  1  0.96578900  0.09807100  0.35482500  1
  O  O52  1  0.65372400  0.96907500  0.65427200  1
  O  O53  1  0.17106100  0.65561900  0.87422100  1
  O  O54  1  0.53421100  0.09807100  0.85482500  1
  O  O55  1  0.83182800  0.24714800  0.82060500  1
  O  O56  1  0.77081100  0.58606500  0.74144100  1
  O  O57  1  0.00059000  0.69044400  0.99004700  1
  O  O58  1  0.34415500  0.04047600  0.87974800  1
  O  O59  1  0.82893900  0.34438100  0.12577900  1
