# generated using pymatgen
data_Mo(PO4)2
_symmetry_space_group_name_H-M   'P 1'
_cell_length_a   11.91095600
_cell_length_b   9.98171500
_cell_length_c   17.43561747
_cell_angle_alpha   67.78235714
_cell_angle_beta   90.00000000
_cell_angle_gamma   90.00000000
_symmetry_Int_Tables_number   1
_chemical_formula_structural   Mo(PO4)2
_chemical_formula_sum   'Mo12 P24 O96'
_cell_volume   1919.04344363
_cell_formula_units_Z   12
loop_
 _symmetry_equiv_pos_site_id
 _symmetry_equiv_pos_as_xyz
  1  'x, y, z'
loop_
 _atom_site_type_symbol
 _atom_site_label
 _atom_site_symmetry_multiplicity
 _atom_site_fract_x
 _atom_site_fract_y
 _atom_site_fract_z
 _atom_site_occupancy
  Mo  Mo0  1  0.69737100  0.29362300  0.40787500  1
  Mo  Mo1  1  0.71237700  0.62923800  0.07516500  1
  Mo  Mo2  1  0.30262900  0.70637700  0.59212500  1
  Mo  Mo3  1  0.78762300  0.62923800  0.57516500  1
  Mo  Mo4  1  0.80262900  0.29362300  0.90787500  1
  Mo  Mo5  1  0.80558300  0.95656700  0.23905900  1
  Mo  Mo6  1  0.19737100  0.70637700  0.09212500  1
  Mo  Mo7  1  0.21237700  0.37076200  0.42483500  1
  Mo  Mo8  1  0.69441700  0.95656700  0.73905900  1
  Mo  Mo9  1  0.28762300  0.37076200  0.92483500  1
  Mo  Mo10  1  0.19441700  0.04343300  0.76094100  1
  Mo  Mo11  1  0.30558300  0.04343300  0.26094100  1
  P  P12  1  0.04824600  0.96721900  0.34421000  1
  P  P13  1  0.82776900  0.59774600  0.37682000  1
  P  P14  1  0.67223100  0.59774600  0.87682000  1
  P  P15  1  0.20629500  0.73167400  0.38484800  1
  P  P16  1  0.17223100  0.40225400  0.62318000  1
  P  P17  1  0.53804400  0.70771700  0.47854900  1
  P  P18  1  0.32776900  0.40225400  0.12318000  1
  P  P19  1  0.80009700  0.94532000  0.93912300  1
  P  P20  1  0.79370500  0.26832600  0.61515200  1
  P  P21  1  0.95175400  0.03278100  0.65579000  1
  P  P22  1  0.46056600  0.61938400  0.16151400  1
  P  P23  1  0.96056600  0.38061600  0.33848600  1
  P  P24  1  0.70629500  0.26832600  0.11515200  1
  P  P25  1  0.19990300  0.05468000  0.06087700  1
  P  P26  1  0.30009700  0.05468000  0.56087700  1
  P  P27  1  0.54824600  0.03278100  0.15579000  1
  P  P28  1  0.53943400  0.38061600  0.83848600  1
  P  P29  1  0.29370500  0.73167400  0.88484800  1
  P  P30  1  0.46195600  0.29228300  0.52145100  1
  P  P31  1  0.45175400  0.96721900  0.84421000  1
  P  P32  1  0.03943400  0.61938400  0.66151400  1
  P  P33  1  0.69990300  0.94532000  0.43912300  1
  P  P34  1  0.96195600  0.70771700  0.97854900  1
  P  P35  1  0.03804400  0.29228300  0.02145100  1
  O  O36  1  0.70060700  0.41533600  0.12490400  1
  O  O37  1  0.72067800  0.83421800  0.00252000  1
  O  O38  1  0.57741700  0.87526000  0.45958800  1
  O  O39  1  0.85891900  0.61606000  0.02606800  1
  O  O40  1  0.73591200  0.64067300  0.66294800  1
  O  O41  1  0.07253300  0.45750300  0.66509800  1
  O  O42  1  0.69531000  0.07908800  0.46334500  1
  O  O43  1  0.35891900  0.38394000  0.47393200  1
  O  O44  1  0.26408800  0.35932700  0.33705200  1
  O  O45  1  0.77932200  0.83421800  0.50252000  1
  O  O46  1  0.63692600  0.92809400  0.65743800  1
  O  O47  1  0.73007100  0.98067700  0.35046300  1
  O  O48  1  0.85725200  0.28570400  0.38247400  1
  O  O49  1  0.49216500  0.62076100  0.24226000  1
  O  O50  1  0.77528900  0.50275800  0.87512200  1
  O  O51  1  0.99850800  0.68338400  0.90477600  1
  O  O52  1  0.94697700  0.30879600  0.95365200  1
  O  O53  1  0.21611300  0.83283700  0.81486900  1
  O  O54  1  0.19531000  0.92091200  0.03665500  1
  O  O55  1  0.35147200  0.05637600  0.78984800  1
  O  O56  1  0.13692600  0.07190600  0.84256200  1
  O  O57  1  0.19575000  0.24823500  0.68573100  1
  O  O58  1  0.80469000  0.07908800  0.96334500  1
  O  O59  1  0.50783500  0.37923900  0.75774000  1
  O  O60  1  0.79939300  0.41533600  0.62490400  1
  O  O61  1  0.14274800  0.71429600  0.61752600  1
  O  O62  1  0.91665300  0.20098500  0.64065000  1
  O  O63  1  0.44724100  0.01087400  0.21642300  1
  O  O64  1  0.92746700  0.54249700  0.33490200  1
  O  O65  1  0.41665300  0.79901500  0.85935000  1
  O  O66  1  0.55649700  0.65716800  0.09388200  1
  O  O67  1  0.64852800  0.94362400  0.21015200  1
  O  O68  1  0.52585200  0.00999400  0.07922500  1
  O  O69  1  0.85433900  0.29612600  0.81683900  1
  O  O70  1  0.35725200  0.71429600  0.11752600  1
  O  O71  1  0.07741700  0.12474000  0.04041200  1
  O  O72  1  0.50149200  0.68338400  0.40477600  1
  O  O73  1  0.02585200  0.99000600  0.42077500  1
  O  O74  1  0.29939300  0.58466400  0.87509600  1
  O  O75  1  0.14566100  0.70387400  0.18316100  1
  O  O76  1  0.20060700  0.58466400  0.37509600  1
  O  O77  1  0.80425000  0.75176500  0.31426900  1
  O  O78  1  0.69575000  0.75176500  0.81426900  1
  O  O79  1  0.26270500  0.72263700  0.96970300  1
  O  O80  1  0.36307400  0.07190600  0.34256200  1
  O  O81  1  0.94724100  0.98912600  0.28357700  1
  O  O82  1  0.26992900  0.01932300  0.64953700  1
  O  O83  1  0.55275900  0.98912600  0.78357700  1
  O  O84  1  0.14108100  0.38394000  0.97393200  1
  O  O85  1  0.14257400  0.40725700  0.53847900  1
  O  O86  1  0.76270500  0.27736300  0.53029700  1
  O  O87  1  0.55302300  0.30879600  0.45365200  1
  O  O88  1  0.27932200  0.16578200  0.99748000  1
  O  O89  1  0.42258300  0.12474000  0.54041200  1
  O  O90  1  0.72471100  0.50275800  0.37512200  1
  O  O91  1  0.71611300  0.16716300  0.68513100  1
  O  O92  1  0.49850800  0.31661600  0.59522400  1
  O  O93  1  0.86307400  0.92809400  0.15743800  1
  O  O94  1  0.57253300  0.54249700  0.83490200  1
  O  O95  1  0.23591200  0.35932700  0.83705200  1
  O  O96  1  0.73729500  0.27736300  0.03029700  1
  O  O97  1  0.22067800  0.16578200  0.49748000  1
  O  O98  1  0.85742600  0.59274300  0.46152100  1
  O  O99  1  0.44350300  0.34283200  0.90611800  1
  O  O100  1  0.58334700  0.20098500  0.14065000  1
  O  O101  1  0.30425000  0.24823500  0.18573100  1
  O  O102  1  0.05275900  0.01087400  0.71642300  1
  O  O103  1  0.64108100  0.61606000  0.52606800  1
  O  O104  1  0.00783500  0.62076100  0.74226000  1
  O  O105  1  0.14852800  0.05637600  0.28984800  1
  O  O106  1  0.78388700  0.16716300  0.18513100  1
  O  O107  1  0.22471100  0.49724200  0.12487800  1
  O  O108  1  0.08334700  0.79901500  0.35935000  1
  O  O109  1  0.35433900  0.70387400  0.68316100  1
  O  O110  1  0.27528900  0.49724200  0.62487800  1
  O  O111  1  0.28388700  0.83283700  0.31486900  1
  O  O112  1  0.76992900  0.98067700  0.85046300  1
  O  O113  1  0.85147200  0.94362400  0.71015200  1
  O  O114  1  0.47414800  0.99000600  0.92077500  1
  O  O115  1  0.99216500  0.37923900  0.25774000  1
  O  O116  1  0.30469000  0.92091200  0.53665500  1
  O  O117  1  0.97414800  0.00999400  0.57922500  1
  O  O118  1  0.76408800  0.64067300  0.16294800  1
  O  O119  1  0.64274800  0.28570400  0.88247400  1
  O  O120  1  0.94350300  0.65716800  0.59388200  1
  O  O121  1  0.05302300  0.69120400  0.04634800  1
  O  O122  1  0.64566100  0.29612600  0.31683900  1
  O  O123  1  0.64257400  0.59274300  0.96152100  1
  O  O124  1  0.92258300  0.87526000  0.95958800  1
  O  O125  1  0.05649700  0.34283200  0.40611800  1
  O  O126  1  0.23007100  0.01932300  0.14953700  1
  O  O127  1  0.00149200  0.31661600  0.09522400  1
  O  O128  1  0.35742600  0.40725700  0.03847900  1
  O  O129  1  0.23729500  0.72263700  0.46970300  1
  O  O130  1  0.44697700  0.69120400  0.54634800  1
  O  O131  1  0.42746700  0.45750300  0.16509800  1
