# generated using pymatgen
data_RbNaCr2O7
_symmetry_space_group_name_H-M   'P 1'
_cell_length_a   11.23381100
_cell_length_b   10.13066800
_cell_length_c   13.12206003
_cell_angle_alpha   86.50230800
_cell_angle_beta   90.00000000
_cell_angle_gamma   90.00000000
_symmetry_Int_Tables_number   1
_chemical_formula_structural   RbNaCr2O7
_chemical_formula_sum   'Rb8 Na8 Cr16 O56'
_cell_volume   1490.58752625
_cell_formula_units_Z   8
loop_
 _symmetry_equiv_pos_site_id
 _symmetry_equiv_pos_as_xyz
  1  'x, y, z'
loop_
 _atom_site_type_symbol
 _atom_site_label
 _atom_site_symmetry_multiplicity
 _atom_site_fract_x
 _atom_site_fract_y
 _atom_site_fract_z
 _atom_site_occupancy
  Rb  Rb0  1  0.18402400  0.58623900  0.85129500  1
  Rb  Rb1  1  0.68402400  0.91376100  0.14870500  1
  Rb  Rb2  1  0.99135100  0.73884700  0.41697100  1
  Rb  Rb3  1  0.00864900  0.26115300  0.58302900  1
  Rb  Rb4  1  0.50864900  0.23884700  0.41697100  1
  Rb  Rb5  1  0.49135100  0.76115300  0.58302900  1
  Rb  Rb6  1  0.31597600  0.08623900  0.85129500  1
  Rb  Rb7  1  0.81597600  0.41376100  0.14870500  1
  Na  Na8  1  0.07631100  0.98397900  0.15213900  1
  Na  Na9  1  0.15622000  0.32083100  0.28193300  1
  Na  Na10  1  0.34378000  0.82083100  0.28193300  1
  Na  Na11  1  0.84378000  0.67916900  0.71806700  1
  Na  Na12  1  0.42368900  0.48397900  0.15213900  1
  Na  Na13  1  0.57631100  0.51602100  0.84786100  1
  Na  Na14  1  0.92368900  0.01602100  0.84786100  1
  Na  Na15  1  0.65622000  0.17916900  0.71806700  1
  Cr  Cr16  1  0.10374600  0.61391200  0.15793100  1
  Cr  Cr17  1  0.13555100  0.89083000  0.66414300  1
  Cr  Cr18  1  0.89625400  0.38608800  0.84206900  1
  Cr  Cr19  1  0.26960700  0.53092800  0.43943900  1
  Cr  Cr20  1  0.23039300  0.03092800  0.43943900  1
  Cr  Cr21  1  0.76960700  0.96907200  0.56056100  1
  Cr  Cr22  1  0.63555100  0.60917000  0.33585700  1
  Cr  Cr23  1  0.86444900  0.10917000  0.33585700  1
  Cr  Cr24  1  0.39625400  0.11391200  0.15793100  1
  Cr  Cr25  1  0.90405400  0.74589100  0.99661000  1
  Cr  Cr26  1  0.59594600  0.24589100  0.99661000  1
  Cr  Cr27  1  0.40405400  0.75410900  0.00339000  1
  Cr  Cr28  1  0.60374600  0.88608800  0.84206900  1
  Cr  Cr29  1  0.73039300  0.46907200  0.56056100  1
  Cr  Cr30  1  0.36444900  0.39083000  0.66414300  1
  Cr  Cr31  1  0.09594600  0.25410900  0.00339000  1
  O  O32  1  0.13441600  0.47795300  0.45904900  1
  O  O33  1  0.72845800  0.30698300  0.56390300  1
  O  O34  1  0.09405200  0.00423500  0.74122400  1
  O  O35  1  0.45780200  0.26703700  0.66755600  1
  O  O36  1  0.27154200  0.69301700  0.43609700  1
  O  O37  1  0.91867100  0.76120400  0.87187200  1
  O  O38  1  0.02552100  0.52805100  0.24369300  1
  O  O39  1  0.40594800  0.50423500  0.74122400  1
  O  O40  1  0.76860400  0.66068100  0.30371300  1
  O  O41  1  0.98153800  0.36418300  0.95683000  1
  O  O42  1  0.42178100  0.60988400  0.95584300  1
  O  O43  1  0.67958300  0.52005400  0.66854300  1
  O  O44  1  0.27521200  0.81482300  0.96828500  1
  O  O45  1  0.54219800  0.73296300  0.33244400  1
  O  O46  1  0.22845800  0.19301700  0.43609700  1
  O  O47  1  0.52552100  0.97194900  0.75630700  1
  O  O48  1  0.36707700  0.46432300  0.53692800  1
  O  O49  1  0.63971400  0.74384400  0.79741000  1
  O  O50  1  0.95780200  0.23296300  0.33244400  1
  O  O51  1  0.63292300  0.53567700  0.46307200  1
  O  O52  1  0.22059500  0.52921200  0.12868300  1
  O  O53  1  0.22478800  0.31482300  0.96828500  1
  O  O54  1  0.13971400  0.75615600  0.20259000  1
  O  O55  1  0.48153800  0.13581700  0.04317000  1
  O  O56  1  0.13292300  0.96432300  0.53692800  1
  O  O57  1  0.77154200  0.80698300  0.56390300  1
  O  O58  1  0.08132900  0.23879600  0.12812800  1
  O  O59  1  0.90594800  0.99576500  0.25877600  1
  O  O60  1  0.26860400  0.83931900  0.69628700  1
  O  O61  1  0.47447900  0.02805100  0.24369300  1
  O  O62  1  0.59405200  0.49576500  0.25877600  1
  O  O63  1  0.72478800  0.18517700  0.03171500  1
  O  O64  1  0.04219800  0.76703700  0.66755600  1
  O  O65  1  0.82041700  0.02005400  0.66854300  1
  O  O66  1  0.01846200  0.63581700  0.04317000  1
  O  O67  1  0.86707700  0.03567700  0.46307200  1
  O  O68  1  0.63441600  0.02204700  0.54095100  1
  O  O69  1  0.86028600  0.24384400  0.79741000  1
  O  O70  1  0.57821900  0.39011600  0.04415700  1
  O  O71  1  0.77940500  0.47078800  0.87131700  1
  O  O72  1  0.07821900  0.10988400  0.95584300  1
  O  O73  1  0.92178100  0.89011600  0.04415700  1
  O  O74  1  0.86558400  0.52204700  0.54095100  1
  O  O75  1  0.23139600  0.33931900  0.69628700  1
  O  O76  1  0.72059500  0.97078800  0.87131700  1
  O  O77  1  0.58132900  0.26120400  0.87187200  1
  O  O78  1  0.27940500  0.02921200  0.12868300  1
  O  O79  1  0.36028600  0.25615600  0.20259000  1
  O  O80  1  0.51846200  0.86418300  0.95683000  1
  O  O81  1  0.77521200  0.68517700  0.03171500  1
  O  O82  1  0.36558400  0.97795300  0.45904900  1
  O  O83  1  0.97447900  0.47194900  0.75630700  1
  O  O84  1  0.17958300  0.97994600  0.33145700  1
  O  O85  1  0.41867100  0.73879600  0.12812800  1
  O  O86  1  0.73139600  0.16068100  0.30371300  1
  O  O87  1  0.32041700  0.47994600  0.33145700  1
