# generated using pymatgen
data_ThV2O7
_symmetry_space_group_name_H-M   'P 1'
_cell_length_a   7.18152900
_cell_length_b   7.35575700
_cell_length_c   23.60682300
_cell_angle_alpha   90.00000000
_cell_angle_beta   90.00000000
_cell_angle_gamma   90.00000000
_symmetry_Int_Tables_number   1
_chemical_formula_structural   ThV2O7
_chemical_formula_sum   'Th8 V16 O56'
_cell_volume   1247.04416916
_cell_formula_units_Z   8
loop_
 _symmetry_equiv_pos_site_id
 _symmetry_equiv_pos_as_xyz
  1  'x, y, z'
loop_
 _atom_site_type_symbol
 _atom_site_label
 _atom_site_symmetry_multiplicity
 _atom_site_fract_x
 _atom_site_fract_y
 _atom_site_fract_z
 _atom_site_occupancy
  Th  Th0  1  0.14033200  0.74232300  0.64472600  1
  Th  Th1  1  0.85966800  0.25767700  0.64472600  1
  Th  Th2  1  0.64033200  0.75767700  0.85527400  1
  Th  Th3  1  0.35966800  0.24232300  0.14472600  1
  Th  Th4  1  0.14033200  0.74232300  0.35527400  1
  Th  Th5  1  0.85966800  0.25767700  0.35527400  1
  Th  Th6  1  0.64033200  0.75767700  0.14472600  1
  Th  Th7  1  0.35966800  0.24232300  0.85527400  1
  V  V8  1  0.61798000  0.31579200  0.00000000  1
  V  V9  1  0.88202000  0.81579200  0.50000000  1
  V  V10  1  0.31532300  0.24533800  0.31353000  1
  V  V11  1  0.31532300  0.24533800  0.68647000  1
  V  V12  1  0.68467700  0.75466200  0.68647000  1
  V  V13  1  0.63059100  0.17210900  0.50000000  1
  V  V14  1  0.38202000  0.68420800  0.00000000  1
  V  V15  1  0.81532300  0.25466200  0.81353000  1
  V  V16  1  0.18467700  0.74533800  0.18647000  1
  V  V17  1  0.86940900  0.67210900  0.00000000  1
  V  V18  1  0.68467700  0.75466200  0.31353000  1
  V  V19  1  0.11798000  0.18420800  0.50000000  1
  V  V20  1  0.18467700  0.74533800  0.81353000  1
  V  V21  1  0.81532300  0.25466200  0.18647000  1
  V  V22  1  0.13059100  0.32789100  0.00000000  1
  V  V23  1  0.36940900  0.82789100  0.50000000  1
  O  O24  1  0.17141700  0.06700300  0.66083400  1
  O  O25  1  0.67603900  0.06758800  0.16478200  1
  O  O26  1  0.32858300  0.56700300  0.83916600  1
  O  O27  1  0.53465400  0.24104200  0.65920600  1
  O  O28  1  0.43208900  0.79784300  0.06020100  1
  O  O29  1  0.82858300  0.93299700  0.33916600  1
  O  O30  1  0.33024200  0.70325900  0.44142700  1
  O  O31  1  0.32396100  0.93241200  0.83521800  1
  O  O32  1  0.82858300  0.93299700  0.66083400  1
  O  O33  1  0.17603900  0.43241200  0.33521800  1
  O  O34  1  0.37633900  0.11568900  0.50000000  1
  O  O35  1  0.06791100  0.29784300  0.43979900  1
  O  O36  1  0.65994200  0.75314500  0.24075800  1
  O  O37  1  0.46534600  0.75895800  0.34079400  1
  O  O38  1  0.65994200  0.75314500  0.75924200  1
  O  O39  1  0.17141700  0.06700300  0.33916600  1
  O  O40  1  0.34005800  0.24685500  0.24075800  1
  O  O41  1  0.67141700  0.43299700  0.83916600  1
  O  O42  1  0.37174000  0.42342100  0.00000000  1
  O  O43  1  0.62366100  0.88431100  0.50000000  1
  O  O44  1  0.83024200  0.79674100  0.94142700  1
  O  O45  1  0.87633900  0.38431100  0.00000000  1
  O  O46  1  0.83024200  0.79674100  0.05857300  1
  O  O47  1  0.67141700  0.43299700  0.16083400  1
  O  O48  1  0.03465400  0.25895800  0.84079400  1
  O  O49  1  0.32858300  0.56700300  0.16083400  1
  O  O50  1  0.03465400  0.25895800  0.15920600  1
  O  O51  1  0.66975800  0.29674100  0.55857300  1
  O  O52  1  0.15994200  0.74685500  0.25924200  1
  O  O53  1  0.33024200  0.70325900  0.55857300  1
  O  O54  1  0.56791100  0.20215700  0.06020100  1
  O  O55  1  0.84005800  0.25314500  0.25924200  1
  O  O56  1  0.15994200  0.74685500  0.74075800  1
  O  O57  1  0.66975800  0.29674100  0.44142700  1
  O  O58  1  0.16975800  0.20325900  0.94142700  1
  O  O59  1  0.82396100  0.56758800  0.33521800  1
  O  O60  1  0.82396100  0.56758800  0.66478200  1
  O  O61  1  0.12366100  0.61568900  0.00000000  1
  O  O62  1  0.16975800  0.20325900  0.05857300  1
  O  O63  1  0.34005800  0.24685500  0.75924200  1
  O  O64  1  0.46534600  0.75895800  0.65920600  1
  O  O65  1  0.96534600  0.74104200  0.15920600  1
  O  O66  1  0.84005800  0.25314500  0.74075800  1
  O  O67  1  0.32396100  0.93241200  0.16478200  1
  O  O68  1  0.93208900  0.70215700  0.43979900  1
  O  O69  1  0.43208900  0.79784300  0.93979900  1
  O  O70  1  0.67603900  0.06758800  0.83521800  1
  O  O71  1  0.17603900  0.43241200  0.66478200  1
  O  O72  1  0.96534600  0.74104200  0.84079400  1
  O  O73  1  0.93208900  0.70215700  0.56020100  1
  O  O74  1  0.06791100  0.29784300  0.56020100  1
  O  O75  1  0.87174000  0.07657900  0.50000000  1
  O  O76  1  0.56791100  0.20215700  0.93979900  1
  O  O77  1  0.12826000  0.92342100  0.50000000  1
  O  O78  1  0.62826000  0.57657900  0.00000000  1
  O  O79  1  0.53465400  0.24104200  0.34079400  1
