# generated using pymatgen
data_NaFe7(PO4)6
_symmetry_space_group_name_H-M   'P 1'
_cell_length_a   7.30627700
_cell_length_b   9.07844231
_cell_length_c   9.96534336
_cell_angle_alpha   63.72179635
_cell_angle_beta   68.53997312
_cell_angle_gamma   75.50908981
_symmetry_Int_Tables_number   1
_chemical_formula_structural   NaFe7(PO4)6
_chemical_formula_sum   'Na1 Fe7 P6 O24'
_cell_volume   548.50408779
_cell_formula_units_Z   1
loop_
 _symmetry_equiv_pos_site_id
 _symmetry_equiv_pos_as_xyz
  1  'x, y, z'
loop_
 _atom_site_type_symbol
 _atom_site_label
 _atom_site_symmetry_multiplicity
 _atom_site_fract_x
 _atom_site_fract_y
 _atom_site_fract_z
 _atom_site_occupancy
  Na  Na0  1  0.50000000  0.00000000  0.00000000  1
  Fe  Fe1  1  0.81719800  0.28962700  0.35656500  1
  Fe  Fe2  1  0.63571900  0.69780700  0.42565000  1
  Fe  Fe3  1  0.18280200  0.71037300  0.64343500  1
  Fe  Fe4  1  0.36428100  0.30219300  0.57435000  1
  Fe  Fe5  1  0.68315600  0.41581700  0.90153900  1
  Fe  Fe6  1  0.31684400  0.58418300  0.09846100  1
  Fe  Fe7  1  0.00000000  0.00000000  0.00000000  1
  P  P8  1  0.73001300  0.73752500  0.88898600  1
  P  P9  1  0.38915700  0.89600600  0.76012000  1
  P  P10  1  0.61084300  0.10399400  0.23988000  1
  P  P11  1  0.07624900  0.76963800  0.33770500  1
  P  P12  1  0.26998700  0.26247500  0.11101400  1
  P  P13  1  0.92375100  0.23036200  0.66229500  1
  O  O14  1  0.58795000  0.92473000  0.27438400  1
  O  O15  1  0.36838300  0.42876400  0.98746800  1
  O  O16  1  0.93592900  0.06779200  0.80644200  1
  O  O17  1  0.18104000  0.80117200  0.43277400  1
  O  O18  1  0.63161700  0.57123600  0.01253200  1
  O  O19  1  0.06407100  0.93220800  0.19355800  1
  O  O20  1  0.55484400  0.41942300  0.36967600  1
  O  O21  1  0.06521700  0.33314400  0.20026200  1
  O  O22  1  0.93478300  0.66685600  0.79973800  1
  O  O23  1  0.29958600  0.46476400  0.66557400  1
  O  O24  1  0.31147600  0.87814800  0.64544500  1
  O  O25  1  0.19672900  0.63027300  0.28465400  1
  O  O26  1  0.12989700  0.28069300  0.54998000  1
  O  O27  1  0.68852400  0.12185200  0.35455500  1
  O  O28  1  0.41205000  0.07527000  0.72561600  1
  O  O29  1  0.80327100  0.36972700  0.71534600  1
  O  O30  1  0.81896000  0.19882800  0.56722600  1
  O  O31  1  0.74683100  0.17493700  0.06705500  1
  O  O32  1  0.39793800  0.20756300  0.24826500  1
  O  O33  1  0.44515600  0.58057700  0.63032400  1
  O  O34  1  0.25316900  0.82506300  0.93294500  1
  O  O35  1  0.87010300  0.71930700  0.45002000  1
  O  O36  1  0.60206200  0.79243700  0.75173500  1
  O  O37  1  0.70041400  0.53523600  0.33442600  1
