# generated using pymatgen
data_KMnO4
_symmetry_space_group_name_H-M   'P 1'
_cell_length_a   6.16818300
_cell_length_b   7.48005200
_cell_length_c   9.03208400
_cell_angle_alpha   90.00000000
_cell_angle_beta   90.00000000
_cell_angle_gamma   90.00000000
_symmetry_Int_Tables_number   1
_chemical_formula_structural   KMnO4
_chemical_formula_sum   'K4 Mn4 O16'
_cell_volume   416.72526844
_cell_formula_units_Z   4
loop_
 _symmetry_equiv_pos_site_id
 _symmetry_equiv_pos_as_xyz
  1  'x, y, z'
loop_
 _atom_site_type_symbol
 _atom_site_label
 _atom_site_symmetry_multiplicity
 _atom_site_fract_x
 _atom_site_fract_y
 _atom_site_fract_z
 _atom_site_occupancy
  K  K0  1  0.75000000  0.83260900  0.68434500  1
  K  K1  1  0.25000000  0.16739100  0.31565500  1
  K  K2  1  0.25000000  0.33260900  0.81565500  1
  K  K3  1  0.75000000  0.66739100  0.18434500  1
  Mn  Mn4  1  0.25000000  0.82133500  0.91440500  1
  Mn  Mn5  1  0.25000000  0.67866500  0.41440500  1
  Mn  Mn6  1  0.75000000  0.32133500  0.58559500  1
  Mn  Mn7  1  0.75000000  0.17866500  0.08559500  1
  O  O8  1  0.75000000  0.01301400  0.97056200  1
  O  O9  1  0.46394200  0.80188700  0.43698200  1
  O  O10  1  0.53605800  0.30188700  0.06301800  1
  O  O11  1  0.96394200  0.30188700  0.06301800  1
  O  O12  1  0.46394200  0.69811300  0.93698200  1
  O  O13  1  0.25000000  0.51301400  0.52943800  1
  O  O14  1  0.53605800  0.19811300  0.56301800  1
  O  O15  1  0.25000000  0.98698600  0.02943800  1
  O  O16  1  0.96394200  0.19811300  0.56301800  1
  O  O17  1  0.75000000  0.48698600  0.47056200  1
  O  O18  1  0.03605800  0.69811300  0.93698200  1
  O  O19  1  0.25000000  0.60076700  0.24753400  1
  O  O20  1  0.03605800  0.80188700  0.43698200  1
  O  O21  1  0.75000000  0.10076700  0.25246600  1
  O  O22  1  0.75000000  0.39923300  0.75246600  1
  O  O23  1  0.25000000  0.89923300  0.74753400  1
