# generated using pymatgen
data_VAg2O3F
_symmetry_space_group_name_H-M   'P 1'
_cell_length_a   10.62738200
_cell_length_b   5.70818700
_cell_length_c   13.93492982
_cell_angle_alpha   65.90156888
_cell_angle_beta   90.00000000
_cell_angle_gamma   90.00000000
_symmetry_Int_Tables_number   1
_chemical_formula_structural   VAg2O3F
_chemical_formula_sum   'V8 Ag16 O24 F8'
_cell_volume   771.66087474
_cell_formula_units_Z   8
loop_
 _symmetry_equiv_pos_site_id
 _symmetry_equiv_pos_as_xyz
  1  'x, y, z'
loop_
 _atom_site_type_symbol
 _atom_site_label
 _atom_site_symmetry_multiplicity
 _atom_site_fract_x
 _atom_site_fract_y
 _atom_site_fract_z
 _atom_site_occupancy
  V  V0  1  0.23162000  0.12709700  0.58597500  1
  V  V1  1  0.48448300  0.93947800  0.28554300  1
  V  V2  1  0.26838000  0.12709700  0.08597500  1
  V  V3  1  0.51551700  0.06052200  0.71445700  1
  V  V4  1  0.01551700  0.93947800  0.78554300  1
  V  V5  1  0.76838000  0.87290300  0.41402500  1
  V  V6  1  0.73162000  0.87290300  0.91402500  1
  V  V7  1  0.98448300  0.06052200  0.21445700  1
  Ag  Ag8  1  0.05323400  0.66691900  0.06478400  1
  Ag  Ag9  1  0.02651600  0.64532900  0.59653400  1
  Ag  Ag10  1  0.94676600  0.33308100  0.93521600  1
  Ag  Ag11  1  0.29620300  0.77922500  0.91695100  1
  Ag  Ag12  1  0.79620300  0.22077500  0.58304900  1
  Ag  Ag13  1  0.24512900  0.42167300  0.77598900  1
  Ag  Ag14  1  0.74512900  0.57832700  0.72401100  1
  Ag  Ag15  1  0.25487100  0.42167300  0.27598900  1
  Ag  Ag16  1  0.70379700  0.22077500  0.08304900  1
  Ag  Ag17  1  0.52651600  0.35467100  0.90346600  1
  Ag  Ag18  1  0.55323400  0.33308100  0.43521600  1
  Ag  Ag19  1  0.44676600  0.66691900  0.56478400  1
  Ag  Ag20  1  0.20379700  0.77922500  0.41695100  1
  Ag  Ag21  1  0.97348400  0.35467100  0.40346600  1
  Ag  Ag22  1  0.47348400  0.64532900  0.09653400  1
  Ag  Ag23  1  0.75487100  0.57832700  0.22401100  1
  O  O24  1  0.60626600  0.33055600  0.66568900  1
  O  O25  1  0.83189500  0.65683200  0.53147700  1
  O  O26  1  0.89373400  0.33055600  0.16568900  1
  O  O27  1  0.10891000  0.20846500  0.09730000  1
  O  O28  1  0.66810500  0.65683200  0.03147700  1
  O  O29  1  0.89109000  0.79153500  0.90270000  1
  O  O30  1  0.42580000  0.10479200  0.80809600  1
  O  O31  1  0.64657600  0.84309600  0.80888500  1
  O  O32  1  0.33189500  0.34316800  0.96852300  1
  O  O33  1  0.85342400  0.84309600  0.30888500  1
  O  O34  1  0.92580000  0.89520800  0.69190400  1
  O  O35  1  0.07420000  0.10479200  0.30809600  1
  O  O36  1  0.57420000  0.89520800  0.19190400  1
  O  O37  1  0.60891000  0.79153500  0.40270000  1
  O  O38  1  0.21869600  0.81591600  0.59394300  1
  O  O39  1  0.39109000  0.20846500  0.59730000  1
  O  O40  1  0.10626600  0.66944400  0.83431100  1
  O  O41  1  0.35342400  0.15690400  0.19111500  1
  O  O42  1  0.39373400  0.66944400  0.33431100  1
  O  O43  1  0.16810500  0.34316800  0.46852300  1
  O  O44  1  0.28130400  0.81591600  0.09394300  1
  O  O45  1  0.71869600  0.18408400  0.90605700  1
  O  O46  1  0.78130400  0.18408400  0.40605700  1
  O  O47  1  0.14657600  0.15690400  0.69111500  1
  F  F48  1  0.93134400  0.28379100  0.75610600  1
  F  F49  1  0.60209900  0.94449400  0.60296900  1
  F  F50  1  0.89790100  0.94449400  0.10296900  1
  F  F51  1  0.56865600  0.28379100  0.25610600  1
  F  F52  1  0.43134400  0.71620900  0.74389400  1
  F  F53  1  0.39790100  0.05550600  0.39703100  1
  F  F54  1  0.06865600  0.71620900  0.24389400  1
  F  F55  1  0.10209900  0.05550600  0.89703100  1
