# generated using pymatgen
data_CrPb5O8
_symmetry_space_group_name_H-M   'P 1'
_cell_length_a   11.98731100
_cell_length_b   11.97980800
_cell_length_c   15.14951986
_cell_angle_alpha   88.90315870
_cell_angle_beta   90.00000000
_cell_angle_gamma   90.00000000
_symmetry_Int_Tables_number   1
_chemical_formula_structural   CrPb5O8
_chemical_formula_sum   'Cr8 Pb40 O64'
_cell_volume   2175.15853577
_cell_formula_units_Z   8
loop_
 _symmetry_equiv_pos_site_id
 _symmetry_equiv_pos_as_xyz
  1  'x, y, z'
loop_
 _atom_site_type_symbol
 _atom_site_label
 _atom_site_symmetry_multiplicity
 _atom_site_fract_x
 _atom_site_fract_y
 _atom_site_fract_z
 _atom_site_occupancy
  Cr  Cr0  1  0.39112800  0.15787200  0.57343400  1
  Cr  Cr1  1  0.10887200  0.65787200  0.57343400  1
  Cr  Cr2  1  0.60887200  0.84212800  0.42656600  1
  Cr  Cr3  1  0.09774900  0.65032600  0.07084200  1
  Cr  Cr4  1  0.40225100  0.15032600  0.07084200  1
  Cr  Cr5  1  0.59774900  0.84967400  0.92915800  1
  Cr  Cr6  1  0.89112800  0.34212800  0.42656600  1
  Cr  Cr7  1  0.90225100  0.34967400  0.92915800  1
  Pb  Pb8  1  0.58671900  0.39036100  0.18903300  1
  Pb  Pb9  1  0.05393900  0.11647800  0.06270000  1
  Pb  Pb10  1  0.76060200  0.10830200  0.80950400  1
  Pb  Pb11  1  0.41328100  0.60963900  0.81096700  1
  Pb  Pb12  1  0.58159200  0.86248400  0.19010200  1
  Pb  Pb13  1  0.73909700  0.09901400  0.06233700  1
  Pb  Pb14  1  0.91864800  0.37259900  0.67413700  1
  Pb  Pb15  1  0.23909700  0.40098600  0.93766300  1
  Pb  Pb16  1  0.91840800  0.36248400  0.19010200  1
  Pb  Pb17  1  0.06928800  0.10789200  0.56027200  1
  Pb  Pb18  1  0.44606100  0.61647800  0.06270000  1
  Pb  Pb19  1  0.56928800  0.39210800  0.43972800  1
  Pb  Pb20  1  0.91250600  0.89284200  0.68912300  1
  Pb  Pb21  1  0.94606100  0.88352200  0.93730000  1
  Pb  Pb22  1  0.08671900  0.10963900  0.81096700  1
  Pb  Pb23  1  0.58749400  0.39284200  0.68912300  1
  Pb  Pb24  1  0.91328100  0.89036100  0.18903300  1
  Pb  Pb25  1  0.75423600  0.11084600  0.29378200  1
  Pb  Pb26  1  0.74441300  0.11311200  0.57510800  1
  Pb  Pb27  1  0.73939800  0.60830200  0.80950400  1
  Pb  Pb28  1  0.41840800  0.13751600  0.80989800  1
  Pb  Pb29  1  0.58135200  0.87259900  0.67413700  1
  Pb  Pb30  1  0.43071200  0.60789200  0.56027200  1
  Pb  Pb31  1  0.24576400  0.88915400  0.70621800  1
  Pb  Pb32  1  0.25558700  0.88688800  0.42489200  1
  Pb  Pb33  1  0.08159200  0.63751600  0.80989800  1
  Pb  Pb34  1  0.26060200  0.39169800  0.19049600  1
  Pb  Pb35  1  0.25423600  0.38915400  0.70621800  1
  Pb  Pb36  1  0.93071200  0.89210800  0.43972800  1
  Pb  Pb37  1  0.08749400  0.10715800  0.31087700  1
  Pb  Pb38  1  0.23939800  0.89169800  0.19049600  1
  Pb  Pb39  1  0.76090300  0.59901400  0.06233700  1
  Pb  Pb40  1  0.41250600  0.60715800  0.31087700  1
  Pb  Pb41  1  0.08135200  0.62740100  0.32586300  1
  Pb  Pb42  1  0.74576400  0.61084600  0.29378200  1
  Pb  Pb43  1  0.24441300  0.38688800  0.42489200  1
  Pb  Pb44  1  0.55393900  0.38352200  0.93730000  1
  Pb  Pb45  1  0.26090300  0.90098600  0.93766300  1
  Pb  Pb46  1  0.41864800  0.12740100  0.32586300  1
  Pb  Pb47  1  0.75558700  0.61311200  0.57510800  1
  O  O48  1  0.40068800  0.29084000  0.07153900  1
  O  O49  1  0.20301700  0.65191900  0.65555500  1
  O  O50  1  0.39983800  0.50567000  0.94582400  1
  O  O51  1  0.99512800  0.59100500  0.60676500  1
  O  O52  1  0.05520700  0.61154100  0.97082500  1
  O  O53  1  0.27501600  0.01877900  0.81815800  1
  O  O54  1  0.42145000  0.29229800  0.55419500  1
  O  O55  1  0.59931200  0.70916000  0.92846100  1
  O  O56  1  0.27419600  0.10202800  0.09042500  1
  O  O57  1  0.08111000  0.99577600  0.18445700  1
  O  O58  1  0.67457600  0.70981000  0.68947700  1
  O  O59  1  0.67721900  0.70128200  0.17138100  1
  O  O60  1  0.32278100  0.29871800  0.82861900  1
  O  O61  1  0.91143500  0.00991900  0.31446100  1
  O  O62  1  0.48757400  0.10497100  0.15113100  1
  O  O63  1  0.82542400  0.20981000  0.68947700  1
  O  O64  1  0.77501600  0.48122100  0.18184200  1
  O  O65  1  0.16360600  0.60370800  0.48149300  1
  O  O66  1  0.27267200  0.01367200  0.30702300  1
  O  O67  1  0.41889000  0.49577600  0.18445700  1
  O  O68  1  0.01242600  0.60497100  0.15113100  1
  O  O69  1  0.49512800  0.90899500  0.39323500  1
  O  O70  1  0.07855000  0.79229800  0.55419500  1
  O  O71  1  0.44479300  0.11154100  0.97082500  1
  O  O72  1  0.33639400  0.10370800  0.48149300  1
  O  O73  1  0.51242600  0.89502900  0.84886900  1
  O  O74  1  0.40472900  0.49424500  0.43981500  1
  O  O75  1  0.41143500  0.49008100  0.68553900  1
  O  O76  1  0.91889000  0.00422400  0.81554300  1
  O  O77  1  0.66360600  0.89629200  0.51850700  1
  O  O78  1  0.79698300  0.34808100  0.34444500  1
  O  O79  1  0.90068800  0.20916000  0.92846100  1
  O  O80  1  0.22498400  0.51877900  0.81815800  1
  O  O81  1  0.17457600  0.79019000  0.31052300  1
  O  O82  1  0.09931200  0.79084000  0.07153900  1
  O  O83  1  0.83639400  0.39629200  0.51850700  1
  O  O84  1  0.72498400  0.98122100  0.18184200  1
  O  O85  1  0.70301700  0.84808100  0.34444500  1
  O  O86  1  0.77419600  0.39797200  0.90957500  1
  O  O87  1  0.82278100  0.20128200  0.17138100  1
  O  O88  1  0.92145000  0.20770200  0.44580500  1
  O  O89  1  0.72732800  0.98632800  0.69297700  1
  O  O90  1  0.00487200  0.40899500  0.39323500  1
  O  O91  1  0.59527100  0.50575500  0.56018500  1
  O  O92  1  0.08856500  0.99008100  0.68553900  1
  O  O93  1  0.50487200  0.09100500  0.60676500  1
  O  O94  1  0.98757400  0.39502900  0.84886900  1
  O  O95  1  0.32542400  0.29019000  0.31052300  1
  O  O96  1  0.72580400  0.89797200  0.90957500  1
  O  O97  1  0.17721900  0.79871800  0.82861900  1
  O  O98  1  0.29698300  0.15191900  0.65555500  1
  O  O99  1  0.58111000  0.50422400  0.81554300  1
  O  O100  1  0.58856500  0.50991900  0.31446100  1
  O  O101  1  0.09527100  0.99424500  0.43981500  1
  O  O102  1  0.22580400  0.60202800  0.09042500  1
  O  O103  1  0.57855000  0.70770200  0.44580500  1
  O  O104  1  0.55520700  0.88845900  0.02917500  1
  O  O105  1  0.60016200  0.49433000  0.05417600  1
  O  O106  1  0.89983800  0.99433000  0.05417600  1
  O  O107  1  0.10016200  0.00567000  0.94582400  1
  O  O108  1  0.77267200  0.48632800  0.69297700  1
  O  O109  1  0.94479300  0.38845900  0.02917500  1
  O  O110  1  0.90472900  0.00575500  0.56018500  1
  O  O111  1  0.22732800  0.51367200  0.30702300  1
