# generated using pymatgen
data_V(PO3)3
_symmetry_space_group_name_H-M   'P 1'
_cell_length_a   9.42668100
_cell_length_b   9.43119232
_cell_length_c   9.67667055
_cell_angle_alpha   109.33487048
_cell_angle_beta   104.33726354
_cell_angle_gamma   108.84794087
_symmetry_Int_Tables_number   1
_chemical_formula_structural   V(PO3)3
_chemical_formula_sum   'V4 P12 O36'
_cell_volume   705.09184620
_cell_formula_units_Z   4
loop_
 _symmetry_equiv_pos_site_id
 _symmetry_equiv_pos_as_xyz
  1  'x, y, z'
loop_
 _atom_site_type_symbol
 _atom_site_label
 _atom_site_symmetry_multiplicity
 _atom_site_fract_x
 _atom_site_fract_y
 _atom_site_fract_z
 _atom_site_occupancy
  V  V0  1  0.10032900  0.30032000  0.21009700  1
  V  V1  1  0.25518900  0.77456700  0.72443900  1
  V  V2  1  0.89967100  0.69968000  0.78990300  1
  V  V3  1  0.74481100  0.22543300  0.27556100  1
  P  P4  1  0.48433000  0.84374000  0.09946700  1
  P  P5  1  0.18826600  0.09562900  0.92173500  1
  P  P6  1  0.69716200  0.56632700  0.40495800  1
  P  P7  1  0.30283800  0.43367300  0.59504200  1
  P  P8  1  0.06186600  0.79672300  0.16780800  1
  P  P9  1  0.93813400  0.20327700  0.83219200  1
  P  P10  1  0.81173400  0.90437100  0.07826500  1
  P  P11  1  0.00013300  0.60950800  0.35029100  1
  P  P12  1  0.99986700  0.39049200  0.64970900  1
  P  P13  1  0.42734100  0.66633800  0.30351300  1
  P  P14  1  0.57265900  0.33366200  0.69648700  1
  P  P15  1  0.51567000  0.15626000  0.90053300  1
  O  O16  1  0.75083900  0.67106400  0.58121800  1
  O  O17  1  0.15486600  0.35917600  0.64500900  1
  O  O18  1  0.90362500  0.83408200  0.17841200  1
  O  O19  1  0.85425500  0.26214400  0.49920900  1
  O  O20  1  0.96493400  0.27560900  0.00747600  1
  O  O21  1  0.21682400  0.93371700  0.29038000  1
  O  O22  1  0.43644000  0.40873500  0.70449900  1
  O  O23  1  0.59317200  0.30300400  0.85771200  1
  O  O24  1  0.62944000  0.80664300  0.05604200  1
  O  O25  1  0.87720300  0.09491100  0.18504900  1
  O  O26  1  0.73207900  0.48823500  0.75589900  1
  O  O27  1  0.03660800  0.57346700  0.68604400  1
  O  O28  1  0.00918500  0.62835100  0.19679400  1
  O  O29  1  0.96339200  0.42653300  0.31395600  1
  O  O30  1  0.35294800  0.61916200  0.65186300  1
  O  O31  1  0.64705200  0.38083800  0.34813700  1
  O  O32  1  0.03506600  0.72439100  0.99252400  1
  O  O33  1  0.12279700  0.90508900  0.81495100  1
  O  O34  1  0.51503000  0.18384300  0.54926000  1
  O  O35  1  0.64181900  0.19022100  0.05240800  1
  O  O36  1  0.84513400  0.64082400  0.35499100  1
  O  O37  1  0.48497000  0.81615700  0.45074000  1
  O  O38  1  0.37056000  0.19335700  0.94395800  1
  O  O39  1  0.35818100  0.80977900  0.94759200  1
  O  O40  1  0.78317600  0.06628300  0.70962000  1
  O  O41  1  0.24916100  0.32893600  0.41878200  1
  O  O42  1  0.43892500  0.98456000  0.76378200  1
  O  O43  1  0.56107500  0.01544000  0.23621800  1
  O  O44  1  0.17699500  0.13933400  0.08106300  1
  O  O45  1  0.82300500  0.86066600  0.91893700  1
  O  O46  1  0.26792100  0.51176500  0.24410100  1
  O  O47  1  0.99081500  0.37164900  0.80320600  1
  O  O48  1  0.56356000  0.59126500  0.29550100  1
  O  O49  1  0.40682800  0.69699600  0.14228800  1
  O  O50  1  0.14574500  0.73785600  0.50079100  1
  O  O51  1  0.09637500  0.16591800  0.82158800  1
