# generated using pymatgen
data_Fe11O12
_symmetry_space_group_name_H-M   'P 1'
_cell_length_a   6.24220600
_cell_length_b   6.83967106
_cell_length_c   6.89965067
_cell_angle_alpha   71.81697072
_cell_angle_beta   63.59809397
_cell_angle_gamma   76.28061641
_symmetry_Int_Tables_number   1
_chemical_formula_structural   Fe11O12
_chemical_formula_sum   'Fe11 O12'
_cell_volume   248.99528416
_cell_formula_units_Z   1
loop_
 _symmetry_equiv_pos_site_id
 _symmetry_equiv_pos_as_xyz
  1  'x, y, z'
loop_
 _atom_site_type_symbol
 _atom_site_label
 _atom_site_symmetry_multiplicity
 _atom_site_fract_x
 _atom_site_fract_y
 _atom_site_fract_z
 _atom_site_occupancy
  Fe  Fe0  1  0.50000000  0.00000000  0.00000000  1
  Fe  Fe1  1  0.67301200  0.67480300  0.32832200  1
  Fe  Fe2  1  0.08271700  0.32057000  0.16263000  1
  Fe  Fe3  1  0.83642400  0.32366000  0.67737600  1
  Fe  Fe4  1  0.16357600  0.67634000  0.32262400  1
  Fe  Fe5  1  0.24095700  0.00052800  0.51984200  1
  Fe  Fe6  1  0.59119100  0.32438500  0.16366200  1
  Fe  Fe7  1  0.32698800  0.32519700  0.67167800  1
  Fe  Fe8  1  0.40880900  0.67561500  0.83633800  1
  Fe  Fe9  1  0.75904300  0.99947200  0.48015800  1
  Fe  Fe10  1  0.91728300  0.67943000  0.83737000  1
  O  O11  1  0.55849900  0.66427600  0.07397400  1
  O  O12  1  0.72627600  0.34182500  0.40475100  1
  O  O13  1  0.04407500  0.63882800  0.08106600  1
  O  O14  1  0.13214900  0.00686900  0.26284300  1
  O  O15  1  0.20430400  0.34194200  0.40239000  1
  O  O16  1  0.59901100  0.99629700  0.26586900  1
  O  O17  1  0.40098900  0.00370300  0.73413100  1
  O  O18  1  0.79569600  0.65805800  0.59761000  1
  O  O19  1  0.86785100  0.99313100  0.73715700  1
  O  O20  1  0.95592500  0.36117200  0.91893400  1
  O  O21  1  0.27372400  0.65817500  0.59524900  1
  O  O22  1  0.44150100  0.33572400  0.92602600  1
