# generated using pymatgen
data_Fe17O18
_symmetry_space_group_name_H-M   'P 1'
_cell_length_a   6.83429500
_cell_length_b   8.18172266
_cell_length_c   8.23081712
_cell_angle_alpha   110.93372631
_cell_angle_beta   94.52320744
_cell_angle_gamma   114.24202207
_symmetry_Int_Tables_number   1
_chemical_formula_structural   Fe17O18
_chemical_formula_sum   'Fe17 O18'
_cell_volume   377.95567218
_cell_formula_units_Z   1
loop_
 _symmetry_equiv_pos_site_id
 _symmetry_equiv_pos_as_xyz
  1  'x, y, z'
loop_
 _atom_site_type_symbol
 _atom_site_label
 _atom_site_symmetry_multiplicity
 _atom_site_fract_x
 _atom_site_fract_y
 _atom_site_fract_z
 _atom_site_occupancy
  Fe  Fe0  1  0.67089300  0.22589200  0.55530600  1
  Fe  Fe1  1  0.84284800  0.27144400  0.94695400  1
  Fe  Fe2  1  0.32563100  0.10526100  0.78203400  1
  Fe  Fe3  1  0.67526300  0.56256600  0.89373900  1
  Fe  Fe4  1  0.48274600  0.16103100  0.16386800  1
  Fe  Fe5  1  0.83246500  0.60726000  0.28273700  1
  Fe  Fe6  1  0.32473700  0.43743400  0.10626100  1
  Fe  Fe7  1  0.16721800  0.05352300  0.38354100  1
  Fe  Fe8  1  0.67436900  0.89473900  0.21796600  1
  Fe  Fe9  1  0.50000000  0.50000000  0.50000000  1
  Fe  Fe10  1  0.99786000  0.32395800  0.32666000  1
  Fe  Fe11  1  0.83278200  0.94647700  0.61645900  1
  Fe  Fe12  1  0.32910700  0.77410800  0.44469400  1
  Fe  Fe13  1  0.16753500  0.39274000  0.71726300  1
  Fe  Fe14  1  0.51725400  0.83896900  0.83613200  1
  Fe  Fe15  1  0.00214000  0.67604200  0.67334000  1
  Fe  Fe16  1  0.15715200  0.72855600  0.05304600  1
  O  O17  1  0.90296800  0.12194600  0.45606700  1
  O  O18  1  0.57758600  0.03832500  0.69410400  1
  O  O19  1  0.92524900  0.47346900  0.80550700  1
  O  O20  1  0.72704800  0.07920900  0.09777000  1
  O  O21  1  0.57722400  0.35041800  0.00673600  1
  O  O22  1  0.75476700  0.41109100  0.41900500  1
  O  O23  1  0.27382600  0.27583500  0.26473700  1
  O  O24  1  0.91231900  0.80609600  0.15280000  1
  O  O25  1  0.60033700  0.70946700  0.35879600  1
  O  O26  1  0.39966300  0.29053300  0.64120400  1
  O  O27  1  0.24523300  0.58890900  0.58099500  1
  O  O28  1  0.08768100  0.19390400  0.84720000  1
  O  O29  1  0.72617400  0.72416500  0.73526300  1
  O  O30  1  0.42277600  0.64958200  0.99326400  1
  O  O31  1  0.27295200  0.92079100  0.90223000  1
  O  O32  1  0.07475100  0.52653100  0.19449300  1
  O  O33  1  0.42241400  0.96167500  0.30589600  1
  O  O34  1  0.09703200  0.87805400  0.54393300  1
