# generated using pymatgen
data_CaB3H5O8
_symmetry_space_group_name_H-M   'P 1'
_cell_length_a   11.24484800
_cell_length_b   6.16583300
_cell_length_c   8.86216739
_cell_angle_alpha   69.55738505
_cell_angle_beta   90.00000000
_cell_angle_gamma   90.00000000
_symmetry_Int_Tables_number   1
_chemical_formula_structural   CaB3H5O8
_chemical_formula_sum   'Ca4 B12 H20 O32'
_cell_volume   575.75179760
_cell_formula_units_Z   4
loop_
 _symmetry_equiv_pos_site_id
 _symmetry_equiv_pos_as_xyz
  1  'x, y, z'
loop_
 _atom_site_type_symbol
 _atom_site_label
 _atom_site_symmetry_multiplicity
 _atom_site_fract_x
 _atom_site_fract_y
 _atom_site_fract_z
 _atom_site_occupancy
  Ca  Ca0  1  0.29292200  0.26235100  0.13643200  1
  Ca  Ca1  1  0.79292200  0.73764900  0.36356800  1
  Ca  Ca2  1  0.70707800  0.73764900  0.86356800  1
  Ca  Ca3  1  0.20707800  0.26235100  0.63643200  1
  B  B4  1  0.29101800  0.68733500  0.83336400  1
  B  B5  1  0.79101800  0.31266500  0.66663600  1
  B  B6  1  0.70898200  0.31266500  0.16663600  1
  B  B7  1  0.20898200  0.68733500  0.33336400  1
  B  B8  1  0.32884100  0.83624900  0.53737400  1
  B  B9  1  0.82884100  0.16375100  0.96262600  1
  B  B10  1  0.67115900  0.16375100  0.46262600  1
  B  B11  1  0.17115900  0.83624900  0.03737400  1
  B  B12  1  0.44861100  0.50108500  0.71925600  1
  B  B13  1  0.94861100  0.49891500  0.78074400  1
  B  B14  1  0.55138900  0.49891500  0.28074400  1
  B  B15  1  0.05138900  0.50108500  0.21925600  1
  H  H16  1  0.41938500  0.13524400  0.42100000  1
  H  H17  1  0.91938500  0.86475600  0.07900000  1
  H  H18  1  0.58061500  0.86475600  0.57900000  1
  H  H19  1  0.08061500  0.13524400  0.92100000  1
  H  H20  1  0.60487500  0.33139300  0.81873500  1
  H  H21  1  0.10487500  0.66860700  0.68126500  1
  H  H22  1  0.39512500  0.66860700  0.18126500  1
  H  H23  1  0.89512500  0.33139300  0.31873500  1
  H  H24  1  0.47466400  0.30268100  0.57461200  1
  H  H25  1  0.97466400  0.69731900  0.92538800  1
  H  H26  1  0.52533600  0.69731900  0.42538800  1
  H  H27  1  0.02533600  0.30268100  0.07461200  1
  H  H28  1  0.52182600  0.95024100  0.20128800  1
  H  H29  1  0.02182600  0.04975900  0.29871200  1
  H  H30  1  0.47817400  0.04975900  0.79871200  1
  H  H31  1  0.97817400  0.95024100  0.70128800  1
  H  H32  1  0.52992800  0.15560000  0.03238700  1
  H  H33  1  0.02992800  0.84440000  0.46761300  1
  H  H34  1  0.47007200  0.84440000  0.96761300  1
  H  H35  1  0.97007200  0.15560000  0.53238700  1
  O  O36  1  0.24922300  0.68908200  0.47923200  1
  O  O37  1  0.74922300  0.31091800  0.02076800  1
  O  O38  1  0.75077700  0.31091800  0.52076800  1
  O  O39  1  0.25077700  0.68908200  0.97923200  1
  O  O40  1  0.26992600  0.85905600  0.68699400  1
  O  O41  1  0.76992600  0.14094400  0.81300600  1
  O  O42  1  0.73007400  0.14094400  0.31300600  1
  O  O43  1  0.23007400  0.85905600  0.18699400  1
  O  O44  1  0.33865300  0.07012000  0.41883900  1
  O  O45  1  0.83865300  0.92988000  0.08116100  1
  O  O46  1  0.66134700  0.92988000  0.58116100  1
  O  O47  1  0.16134700  0.07012000  0.91883900  1
  O  O48  1  0.35429500  0.49085600  0.84106100  1
  O  O49  1  0.85429500  0.50914400  0.65893900  1
  O  O50  1  0.64570500  0.50914400  0.15893900  1
  O  O51  1  0.14570500  0.49085600  0.34106100  1
  O  O52  1  0.44449100  0.72255700  0.58257900  1
  O  O53  1  0.94449100  0.27744300  0.91742100  1
  O  O54  1  0.55550900  0.27744300  0.41742100  1
  O  O55  1  0.05550900  0.72255700  0.08257900  1
  O  O56  1  0.56812800  0.48320300  0.79186000  1
  O  O57  1  0.06812800  0.51679700  0.70814000  1
  O  O58  1  0.43187200  0.51679700  0.20814000  1
  O  O59  1  0.93187200  0.48320300  0.29186000  1
  O  O60  1  0.42394700  0.29842700  0.66853900  1
  O  O61  1  0.92394700  0.70157300  0.83146100  1
  O  O62  1  0.57605300  0.70157300  0.33146100  1
  O  O63  1  0.07605300  0.29842700  0.16853900  1
  O  O64  1  0.47763100  0.08505900  0.12415500  1
  O  O65  1  0.97763100  0.91494100  0.37584500  1
  O  O66  1  0.52236900  0.91494100  0.87584500  1
  O  O67  1  0.02236900  0.08505900  0.62415500  1
