# generated using pymatgen
data_Fe23O25
_symmetry_space_group_name_H-M   'P 1'
_cell_length_a   6.81750000
_cell_length_b   6.85195072
_cell_length_c   12.06887789
_cell_angle_alpha   87.11632903
_cell_angle_beta   106.31714808
_cell_angle_gamma   107.22456387
_symmetry_Int_Tables_number   1
_chemical_formula_structural   Fe23O25
_chemical_formula_sum   'Fe23 O25'
_cell_volume   516.46865576
_cell_formula_units_Z   1
loop_
 _symmetry_equiv_pos_site_id
 _symmetry_equiv_pos_as_xyz
  1  'x, y, z'
loop_
 _atom_site_type_symbol
 _atom_site_label
 _atom_site_symmetry_multiplicity
 _atom_site_fract_x
 _atom_site_fract_y
 _atom_site_fract_z
 _atom_site_occupancy
  Fe  Fe0  1  0.73537600  0.31271700  0.16143500  1
  Fe  Fe1  1  0.47986100  0.69895600  0.43825600  1
  Fe  Fe2  1  0.88102100  0.68347500  0.64014200  1
  Fe  Fe3  1  0.22957600  0.10264700  0.72280100  1
  Fe  Fe4  1  0.26462400  0.68728300  0.83856500  1
  Fe  Fe5  1  0.61891900  0.49354700  0.79860200  1
  Fe  Fe6  1  0.64674600  0.09960600  0.91714200  1
  Fe  Fe7  1  0.69116900  0.70424300  0.04534200  1
  Fe  Fe8  1  0.00000000  0.50000000  0.00000000  1
  Fe  Fe9  1  0.03847400  0.08592600  0.12575700  1
  Fe  Fe10  1  0.35325400  0.90039400  0.08285800  1
  Fe  Fe11  1  0.38108100  0.50645300  0.20139800  1
  Fe  Fe12  1  0.43665900  0.08767300  0.31868100  1
  Fe  Fe13  1  0.77042400  0.89735300  0.27719900  1
  Fe  Fe14  1  0.80354400  0.50416000  0.39178000  1
  Fe  Fe15  1  0.11897900  0.31652500  0.35985800  1
  Fe  Fe16  1  0.84521900  0.10555100  0.52514700  1
  Fe  Fe17  1  0.15478100  0.89444900  0.47485300  1
  Fe  Fe18  1  0.19645600  0.49584000  0.60822000  1
  Fe  Fe19  1  0.52013900  0.30104400  0.56174400  1
  Fe  Fe20  1  0.56334100  0.91232700  0.68131900  1
  Fe  Fe21  1  0.96152600  0.91407400  0.87424300  1
  Fe  Fe22  1  0.30883100  0.29575700  0.95465800  1
  O  O23  1  0.31062700  0.99913700  0.90105600  1
  O  O24  1  0.65009000  0.40457800  0.96939500  1
  O  O25  1  0.68937300  0.00086300  0.09894400  1
  O  O26  1  0.06484600  0.39457500  0.17864400  1
  O  O27  1  0.11940900  0.02777200  0.30379700  1
  O  O28  1  0.42739300  0.80487400  0.26219500  1
  O  O29  1  0.45662700  0.39246900  0.36932900  1
  O  O30  1  0.50000000  0.00000000  0.50000000  1
  O  O31  1  0.81253700  0.80398700  0.46061300  1
  O  O32  1  0.84331900  0.40342800  0.56258700  1
  O  O33  1  0.18746300  0.19601300  0.53938700  1
  O  O34  1  0.54337300  0.60753100  0.63067100  1
  O  O35  1  0.88059100  0.97222800  0.69620300  1
  O  O36  1  0.23667400  0.81363600  0.66214500  1
  O  O37  1  0.29466700  0.40556200  0.77848700  1
  O  O38  1  0.57260700  0.19512600  0.73780500  1
  O  O39  1  0.60777300  0.79112700  0.84640700  1
  O  O40  1  0.93515400  0.60542500  0.82135600  1
  O  O41  1  0.98789400  0.20060100  0.95715100  1
  O  O42  1  0.01210600  0.79939900  0.04284900  1
  O  O43  1  0.34991000  0.59542200  0.03060500  1
  O  O44  1  0.39222700  0.20887300  0.15359300  1
  O  O45  1  0.70533300  0.59443800  0.22151300  1
  O  O46  1  0.76332600  0.18636400  0.33785500  1
  O  O47  1  0.15668100  0.59657200  0.43741300  1
