# generated using pymatgen
data_Fe7O9
_symmetry_space_group_name_H-M   'P 1'
_cell_length_a   8.58476700
_cell_length_b   8.62024223
_cell_length_c   8.77775059
_cell_angle_alpha   89.30478182
_cell_angle_beta   88.95292918
_cell_angle_gamma   89.39269702
_symmetry_Int_Tables_number   1
_chemical_formula_structural   Fe7O9
_chemical_formula_sum   'Fe21 O27'
_cell_volume   649.38660317
_cell_formula_units_Z   3
loop_
 _symmetry_equiv_pos_site_id
 _symmetry_equiv_pos_as_xyz
  1  'x, y, z'
loop_
 _atom_site_type_symbol
 _atom_site_label
 _atom_site_symmetry_multiplicity
 _atom_site_fract_x
 _atom_site_fract_y
 _atom_site_fract_z
 _atom_site_occupancy
  Fe  Fe0  1  0.51257300  0.48992300  0.96891400  1
  Fe  Fe1  1  0.63429000  0.17730100  0.08502600  1
  Fe  Fe2  1  0.32838300  0.91763200  0.12800400  1
  Fe  Fe3  1  0.08778800  0.62946300  0.14377000  1
  Fe  Fe4  1  0.75555700  0.75663600  0.25772300  1
  Fe  Fe5  1  0.26942900  0.26426800  0.26996200  1
  Fe  Fe6  1  0.90485800  0.12975200  0.35699300  1
  Fe  Fe7  1  0.62981500  0.40327300  0.36293800  1
  Fe  Fe8  1  0.35635400  0.62723900  0.41175100  1
  Fe  Fe9  1  0.49100400  0.96543500  0.47108700  1
  Fe  Fe10  1  0.96388900  0.51809000  0.46999600  1
  Fe  Fe11  1  0.87767400  0.87187800  0.60046800  1
  Fe  Fe12  1  0.14462700  0.08511500  0.62981300  1
  Fe  Fe13  1  0.62774700  0.61923300  0.63098100  1
  Fe  Fe14  1  0.40352100  0.33161200  0.64232000  1
  Fe  Fe15  1  0.77385200  0.23817200  0.73772800  1
  Fe  Fe16  1  0.24588100  0.73463300  0.77737700  1
  Fe  Fe17  1  0.59091800  0.88160200  0.84133100  1
  Fe  Fe18  1  0.87406500  0.59397900  0.87567100  1
  Fe  Fe19  1  0.13845900  0.36092400  0.91384500  1
  Fe  Fe20  1  0.00437700  0.03394300  0.00844700  1
  O  O21  1  0.15779600  0.39088800  0.12972500  1
  O  O22  1  0.85842600  0.67031000  0.08138000  1
  O  O23  1  0.11981800  0.86754900  0.11253800  1
  O  O24  1  0.40796400  0.11891800  0.16624000  1
  O  O25  1  0.59431800  0.39414700  0.14921200  1
  O  O26  1  0.85043300  0.12158500  0.14402500  1
  O  O27  1  0.14200300  0.61055700  0.37020200  1
  O  O28  1  0.41001000  0.82229100  0.30855000  1
  O  O29  1  0.62012300  0.62133900  0.40082300  1
  O  O30  1  0.84359000  0.34721800  0.38499200  1
  O  O31  1  0.12738100  0.14551100  0.39502100  1
  O  O32  1  0.39637400  0.39164500  0.40441500  1
  O  O33  1  0.79226500  0.93304000  0.38666800  1
  O  O34  1  0.38411300  0.63024200  0.63145100  1
  O  O35  1  0.90373900  0.11189200  0.60893300  1
  O  O36  1  0.63857300  0.38384000  0.62520600  1
  O  O37  1  0.36785900  0.10820300  0.59886000  1
  O  O38  1  0.11339900  0.86611800  0.66159100  1
  O  O39  1  0.86558300  0.63797800  0.64188700  1
  O  O40  1  0.62177600  0.85759500  0.62968400  1
  O  O41  1  0.35490100  0.38522000  0.85502100  1
  O  O42  1  0.12228200  0.14794900  0.84562000  1
  O  O43  1  0.89539900  0.37243700  0.85990100  1
  O  O44  1  0.64291100  0.65072400  0.86023300  1
  O  O45  1  0.38710500  0.83908800  0.92060100  1
  O  O46  1  0.67189400  0.08295200  0.87097400  1
  O  O47  1  0.10700600  0.59856200  0.88420600  1
