# generated using pymatgen
data_Bi14WO24
_symmetry_space_group_name_H-M   'P 1'
_cell_length_a   8.91916300
_cell_length_b   8.92070178
_cell_length_c   10.63629109
_cell_angle_alpha   114.72462967
_cell_angle_beta   114.54143358
_cell_angle_gamma   89.97603658
_symmetry_Int_Tables_number   1
_chemical_formula_structural   Bi14WO24
_chemical_formula_sum   'Bi14 W1 O24'
_cell_volume   683.70149756
_cell_formula_units_Z   1
loop_
 _symmetry_equiv_pos_site_id
 _symmetry_equiv_pos_as_xyz
  1  'x, y, z'
loop_
 _atom_site_type_symbol
 _atom_site_label
 _atom_site_symmetry_multiplicity
 _atom_site_fract_x
 _atom_site_fract_y
 _atom_site_fract_z
 _atom_site_occupancy
  Bi  Bi0  1  0.06037200  0.86759400  0.34025100  1
  Bi  Bi1  1  0.53077100  0.94616900  0.66696500  1
  Bi  Bi2  1  0.65843100  0.65528800  0.31708100  1
  Bi  Bi3  1  0.13289000  0.72763900  0.66832600  1
  Bi  Bi4  1  0.55658400  0.78293100  0.00181400  1
  Bi  Bi5  1  0.28357400  0.47701800  0.34564100  1
  Bi  Bi6  1  0.72580700  0.53341300  0.66824800  1
  Bi  Bi7  1  0.21498200  0.55827800  0.00109400  1
  Bi  Bi8  1  0.86742200  0.28288800  0.33886800  1
  Bi  Bi9  1  0.34124900  0.34151500  0.67962400  1
  Bi  Bi10  1  0.77962500  0.43978400  0.99872000  1
  Bi  Bi11  1  0.47739400  0.06428700  0.34571300  1
  Bi  Bi12  1  0.94394900  0.13405700  0.66477500  1
  Bi  Bi13  1  0.43680300  0.21438400  0.99688200  1
  W  W14  1  0.02316400  0.02510900  0.04179600  1
  O  O15  1  0.97460900  0.79928800  0.97499500  1
  O  O16  1  0.67269000  0.00300000  0.50683300  1
  O  O17  1  0.45714600  0.76256200  0.15803500  1
  O  O18  1  0.75921500  0.70076500  0.15906600  1
  O  O19  1  0.99867800  0.82992600  0.50149000  1
  O  O20  1  0.38029300  0.88956200  0.77006000  1
  O  O21  1  0.11924000  0.61761300  0.23548300  1
  O  O22  1  0.50315400  0.67415900  0.50289700  1
  O  O23  1  0.39738000  0.46045000  0.15952100  1
  O  O24  1  0.69816400  0.40453700  0.16040200  1
  O  O25  1  0.17467700  0.51179700  0.50934600  1
  O  O26  1  0.82371100  0.50334500  0.49641900  1
  O  O27  1  0.30057800  0.60474200  0.84301600  1
  O  O28  1  0.59932600  0.54075200  0.84057200  1
  O  O29  1  0.83276000  0.10766000  0.98739300  1
  O  O30  1  0.50658000  0.33370200  0.50945700  1
  O  O31  1  0.88454800  0.38346000  0.76818100  1
  O  O32  1  0.61997100  0.11811200  0.23521800  1
  O  O33  1  0.13241100  0.12636400  0.25301600  1
  O  O34  1  0.99651300  0.17337500  0.50245200  1
  O  O35  1  0.23984300  0.30245300  0.83940300  1
  O  O36  1  0.53590200  0.24151100  0.83534300  1
  O  O37  1  0.33070600  0.00105200  0.50450500  1
  O  O38  1  0.15738900  0.07495800  0.96810000  1
