# generated using pymatgen
data_Fe10O11
_symmetry_space_group_name_H-M   'P 1'
_cell_length_a   6.81032000
_cell_length_b   6.89313111
_cell_length_c   10.75721559
_cell_angle_alpha   96.90542676
_cell_angle_beta   103.99551534
_cell_angle_gamma   108.13812805
_symmetry_Int_Tables_number   1
_chemical_formula_structural   Fe10O11
_chemical_formula_sum   'Fe20 O22'
_cell_volume   455.06354630
_cell_formula_units_Z   2
loop_
 _symmetry_equiv_pos_site_id
 _symmetry_equiv_pos_as_xyz
  1  'x, y, z'
loop_
 _atom_site_type_symbol
 _atom_site_label
 _atom_site_symmetry_multiplicity
 _atom_site_fract_x
 _atom_site_fract_y
 _atom_site_fract_z
 _atom_site_occupancy
  Fe  Fe0  1  0.50000000  0.00000000  0.50000000  1
  Fe  Fe1  1  0.66827200  0.91239900  0.27038700  1
  Fe  Fe2  1  0.50000000  0.00000000  0.00000000  1
  Fe  Fe3  1  0.13095600  0.17809300  0.95310300  1
  Fe  Fe4  1  0.33172800  0.08760100  0.72961300  1
  Fe  Fe5  1  0.94473100  0.25937800  0.68485900  1
  Fe  Fe6  1  0.14278600  0.18053900  0.45100300  1
  Fe  Fe7  1  0.76212500  0.36069200  0.40640800  1
  Fe  Fe8  1  0.96605600  0.27315900  0.18602800  1
  Fe  Fe9  1  0.58256300  0.44262800  0.13731200  1
  Fe  Fe10  1  0.77499600  0.34892300  0.90871900  1
  Fe  Fe11  1  0.41743700  0.55737200  0.86268800  1
  Fe  Fe12  1  0.59372400  0.47058100  0.64157300  1
  Fe  Fe13  1  0.23787500  0.63930800  0.59359200  1
  Fe  Fe14  1  0.40627600  0.52941900  0.35842700  1
  Fe  Fe15  1  0.05526900  0.74062200  0.31514100  1
  Fe  Fe16  1  0.22500400  0.65107700  0.09128100  1
  Fe  Fe17  1  0.86904400  0.82190700  0.04689700  1
  Fe  Fe18  1  0.03394400  0.72684100  0.81397200  1
  Fe  Fe19  1  0.85721400  0.81946100  0.54899700  1
  O  O20  1  0.07700100  0.44569300  0.37872800  1
  O  O21  1  0.90407400  0.53207200  0.12007300  1
  O  O22  1  0.09592600  0.46792800  0.87992700  1
  O  O23  1  0.74186000  0.62433200  0.85295200  1
  O  O24  1  0.92299900  0.55430700  0.62127200  1
  O  O25  1  0.53886600  0.71935300  0.56015400  1
  O  O26  1  0.73533100  0.65166800  0.33786400  1
  O  O27  1  0.37281400  0.80294600  0.30173400  1
  O  O28  1  0.55208600  0.73339900  0.07866300  1
  O  O29  1  0.17322800  0.89039900  0.00362500  1
  O  O30  1  0.34005900  0.82125200  0.79426200  1
  O  O31  1  0.02878800  0.00001600  0.75482400  1
  O  O32  1  0.18299600  0.91571900  0.53356700  1
  O  O33  1  0.81700400  0.08428100  0.46643300  1
  O  O34  1  0.97121200  0.99998400  0.24517600  1
  O  O35  1  0.65994100  0.17874800  0.20573800  1
  O  O36  1  0.82677200  0.10960100  0.99637500  1
  O  O37  1  0.44791400  0.26660100  0.92133700  1
  O  O38  1  0.62718600  0.19705400  0.69826600  1
  O  O39  1  0.26466900  0.34833200  0.66213600  1
  O  O40  1  0.46113400  0.28064700  0.43984600  1
  O  O41  1  0.25814000  0.37566800  0.14704800  1
