# generated using pymatgen
data_Ho3Pd2
_symmetry_space_group_name_H-M   'P 1'
_cell_length_a   7.76949800
_cell_length_b   7.76949800
_cell_length_c   3.94206300
_cell_angle_alpha   90.00000000
_cell_angle_beta   90.00000000
_cell_angle_gamma   90.00000000
_symmetry_Int_Tables_number   1
_chemical_formula_structural   Ho3Pd2
_chemical_formula_sum   'Ho6 Pd4'
_cell_volume   237.96302394
_cell_formula_units_Z   2
loop_
 _symmetry_equiv_pos_site_id
 _symmetry_equiv_pos_as_xyz
  1  'x, y, z'
loop_
 _atom_site_type_symbol
 _atom_site_label
 _atom_site_symmetry_multiplicity
 _atom_site_fract_x
 _atom_site_fract_y
 _atom_site_fract_z
 _atom_site_occupancy
  Ho  Ho0  1  0.83564100  0.66435900  0.50000000  1
  Ho  Ho1  1  0.33564100  0.83564100  0.50000000  1
  Ho  Ho2  1  0.16435900  0.33564100  0.50000000  1
  Ho  Ho3  1  0.66435900  0.16435900  0.50000000  1
  Ho  Ho4  1  0.50000000  0.50000000  0.00000000  1
  Ho  Ho5  1  0.00000000  0.00000000  0.00000000  1
  Pd  Pd6  1  0.13332800  0.63332800  0.00000000  1
  Pd  Pd7  1  0.63332800  0.86667200  0.00000000  1
  Pd  Pd8  1  0.36667200  0.13332800  0.00000000  1
  Pd  Pd9  1  0.86667200  0.36667200  0.00000000  1
