# generated using pymatgen
data_KH(IO3)2
_symmetry_space_group_name_H-M   'P 1'
_cell_length_a   7.59578100
_cell_length_b   8.69030700
_cell_length_c   19.73455900
_cell_angle_alpha   90.00000000
_cell_angle_beta   90.00000000
_cell_angle_gamma   90.00000000
_symmetry_Int_Tables_number   1
_chemical_formula_structural   KH(IO3)2
_chemical_formula_sum   'K8 H8 I16 O48'
_cell_volume   1302.67170340
_cell_formula_units_Z   8
loop_
 _symmetry_equiv_pos_site_id
 _symmetry_equiv_pos_as_xyz
  1  'x, y, z'
loop_
 _atom_site_type_symbol
 _atom_site_label
 _atom_site_symmetry_multiplicity
 _atom_site_fract_x
 _atom_site_fract_y
 _atom_site_fract_z
 _atom_site_occupancy
  K  K0  1  0.52041400  0.51541100  0.35293100  1
  K  K1  1  0.47958600  0.48458900  0.85293100  1
  K  K2  1  0.52041400  0.98458900  0.85293100  1
  K  K3  1  0.47958600  0.01541100  0.35293100  1
  K  K4  1  0.99411500  0.53495800  0.15711800  1
  K  K5  1  0.00588500  0.46504200  0.65711800  1
  K  K6  1  0.99411500  0.96504200  0.65711800  1
  K  K7  1  0.00588500  0.03495800  0.15711800  1
  H  H8  1  0.75613900  0.50839900  0.00388500  1
  H  H9  1  0.24386100  0.49160100  0.50388500  1
  H  H10  1  0.75613900  0.99160100  0.50388500  1
  H  H11  1  0.24386100  0.00839900  0.00388500  1
  H  H12  1  0.73099100  0.26005200  0.26311800  1
  H  H13  1  0.26900900  0.73994800  0.76311800  1
  H  H14  1  0.73099100  0.23994800  0.76311800  1
  H  H15  1  0.26900900  0.76005200  0.26311800  1
  I  I16  1  0.80957700  0.82814000  0.00073800  1
  I  I17  1  0.19042300  0.17186000  0.50073800  1
  I  I18  1  0.80957700  0.67186000  0.50073800  1
  I  I19  1  0.19042300  0.32814000  0.00073800  1
  I  I20  1  0.30995300  0.72554500  0.00451900  1
  I  I21  1  0.69004700  0.27445500  0.50451900  1
  I  I22  1  0.30995300  0.77445500  0.50451900  1
  I  I23  1  0.69004700  0.22554500  0.00451900  1
  I  I24  1  0.94799500  0.81693300  0.33078100  1
  I  I25  1  0.05200500  0.18306700  0.83078100  1
  I  I26  1  0.94799500  0.68306700  0.83078100  1
  I  I27  1  0.05200500  0.31693300  0.33078100  1
  I  I28  1  0.53776100  0.75369600  0.18882600  1
  I  I29  1  0.46223900  0.24630400  0.68882600  1
  I  I30  1  0.53776100  0.74630400  0.68882600  1
  I  I31  1  0.46223900  0.25369600  0.18882600  1
  O  O32  1  0.72361900  0.64979000  0.96085300  1
  O  O33  1  0.27638100  0.35021000  0.46085300  1
  O  O34  1  0.72361900  0.85021000  0.46085300  1
  O  O35  1  0.27638100  0.14979000  0.96085300  1
  O  O36  1  0.60532000  0.94149900  0.98648600  1
  O  O37  1  0.39468000  0.05850100  0.48648600  1
  O  O38  1  0.60532000  0.55850100  0.48648600  1
  O  O39  1  0.39468000  0.44149900  0.98648600  1
  O  O40  1  0.78158200  0.78718200  0.09101900  1
  O  O41  1  0.21841800  0.21281800  0.59101900  1
  O  O42  1  0.78158200  0.71281800  0.59101900  1
  O  O43  1  0.21841800  0.28718200  0.09101900  1
  O  O44  1  0.10320100  0.62464000  0.02467600  1
  O  O45  1  0.89679900  0.37536000  0.52467600  1
  O  O46  1  0.10320100  0.87536000  0.52467600  1
  O  O47  1  0.89679900  0.12464000  0.02467600  1
  O  O48  1  0.21021600  0.91716300  0.03547000  1
  O  O49  1  0.78978400  0.08283700  0.53547000  1
  O  O50  1  0.21021600  0.58283700  0.53547000  1
  O  O51  1  0.78978400  0.41716300  0.03547000  1
  O  O52  1  0.27976800  0.75351900  0.91418100  1
  O  O53  1  0.72023200  0.24648100  0.41418100  1
  O  O54  1  0.27976800  0.74648100  0.41418100  1
  O  O55  1  0.72023200  0.25351900  0.91418100  1
  O  O56  1  0.08042700  0.77191100  0.25506200  1
  O  O57  1  0.91957300  0.22808900  0.75506200  1
  O  O58  1  0.08042700  0.72808900  0.75506200  1
  O  O59  1  0.91957300  0.27191100  0.25506200  1
  O  O60  1  0.87606000  0.62304200  0.35634200  1
  O  O61  1  0.12394000  0.37695800  0.85634200  1
  O  O62  1  0.87606000  0.87695800  0.85634200  1
  O  O63  1  0.12394000  0.12304200  0.35634200  1
  O  O64  1  0.75756000  0.89152800  0.28531200  1
  O  O65  1  0.24244000  0.10847200  0.78531200  1
  O  O66  1  0.75756000  0.60847200  0.78531200  1
  O  O67  1  0.24244000  0.39152800  0.28531200  1
  O  O68  1  0.35402100  0.69091700  0.13528200  1
  O  O69  1  0.64597900  0.30908300  0.63528200  1
  O  O70  1  0.35402100  0.80908300  0.63528200  1
  O  O71  1  0.64597900  0.19091700  0.13528200  1
  O  O72  1  0.40727000  0.75542400  0.27173800  1
  O  O73  1  0.59273000  0.24457600  0.77173800  1
  O  O74  1  0.40727000  0.74457600  0.77173800  1
  O  O75  1  0.59273000  0.25542400  0.27173800  1
  O  O76  1  0.64798300  0.57327300  0.20436200  1
  O  O77  1  0.35201700  0.42672700  0.70436200  1
  O  O78  1  0.64798300  0.92672700  0.70436200  1
  O  O79  1  0.35201700  0.07327300  0.20436200  1
