# generated using pymatgen
data_HClO4
_symmetry_space_group_name_H-M   'P 1'
_cell_length_a   8.85812900
_cell_length_b   9.15874400
_cell_length_c   16.18914000
_cell_angle_alpha   90.00000000
_cell_angle_beta   90.00000000
_cell_angle_gamma   90.00000000
_symmetry_Int_Tables_number   1
_chemical_formula_structural   HClO4
_chemical_formula_sum   'H16 Cl16 O64'
_cell_volume   1313.41417586
_cell_formula_units_Z   16
loop_
 _symmetry_equiv_pos_site_id
 _symmetry_equiv_pos_as_xyz
  1  'x, y, z'
loop_
 _atom_site_type_symbol
 _atom_site_label
 _atom_site_symmetry_multiplicity
 _atom_site_fract_x
 _atom_site_fract_y
 _atom_site_fract_z
 _atom_site_occupancy
  H  H0  1  0.86972200  0.23908600  0.98731000  1
  H  H1  1  0.36972200  0.76091400  0.01269000  1
  H  H2  1  0.36972200  0.26091400  0.98731000  1
  H  H3  1  0.86972200  0.73908600  0.01269000  1
  H  H4  1  0.66805700  0.51799000  0.23527900  1
  H  H5  1  0.16805700  0.48201000  0.76472100  1
  H  H6  1  0.16805700  0.98201000  0.23527900  1
  H  H7  1  0.66805700  0.01799000  0.76472100  1
  H  H8  1  0.17443900  0.48026600  0.26809400  1
  H  H9  1  0.67443900  0.51973400  0.73190600  1
  H  H10  1  0.67443900  0.01973400  0.26809400  1
  H  H11  1  0.17443900  0.98026600  0.73190600  1
  H  H12  1  0.10933100  0.26554900  0.49958800  1
  H  H13  1  0.60933100  0.73445100  0.50041200  1
  H  H14  1  0.60933100  0.23445100  0.49958800  1
  H  H15  1  0.10933100  0.76554900  0.50041200  1
  Cl  Cl16  1  0.74722000  0.04035900  0.00981400  1
  Cl  Cl17  1  0.24722000  0.95964100  0.99018600  1
  Cl  Cl18  1  0.24722000  0.45964100  0.00981400  1
  Cl  Cl19  1  0.74722000  0.54035900  0.99018600  1
  Cl  Cl20  1  0.53850300  0.71574000  0.24959700  1
  Cl  Cl21  1  0.03850300  0.28426000  0.75040300  1
  Cl  Cl22  1  0.03850300  0.78426000  0.24959700  1
  Cl  Cl23  1  0.53850300  0.21574000  0.75040300  1
  Cl  Cl24  1  0.02693100  0.29586100  0.25079300  1
  Cl  Cl25  1  0.52693100  0.70413900  0.74920700  1
  Cl  Cl26  1  0.52693100  0.20413900  0.25079300  1
  Cl  Cl27  1  0.02693100  0.79586100  0.74920700  1
  Cl  Cl28  1  0.24841700  0.45822200  0.51024400  1
  Cl  Cl29  1  0.74841700  0.54177800  0.48975600  1
  Cl  Cl30  1  0.74841700  0.04177800  0.51024400  1
  Cl  Cl31  1  0.24841700  0.95822200  0.48975600  1
  O  O32  1  0.89650700  0.14736100  0.01732300  1
  O  O33  1  0.39650700  0.85263900  0.98267700  1
  O  O34  1  0.39650700  0.35263900  0.01732300  1
  O  O35  1  0.89650700  0.64736100  0.98267700  1
  O  O36  1  0.73152300  0.00598800  0.92405800  1
  O  O37  1  0.23152300  0.99401200  0.07594200  1
  O  O38  1  0.23152300  0.49401200  0.92405800  1
  O  O39  1  0.73152300  0.50598800  0.07594200  1
  O  O40  1  0.62409200  0.12013400  0.04439700  1
  O  O41  1  0.12409200  0.87986600  0.95560300  1
  O  O42  1  0.12409200  0.37986600  0.04439700  1
  O  O43  1  0.62409200  0.62013400  0.95560300  1
  O  O44  1  0.79373300  0.91817800  0.05959900  1
  O  O45  1  0.29373300  0.08182200  0.94040100  1
  O  O46  1  0.29373300  0.58182200  0.05959900  1
  O  O47  1  0.79373300  0.41817800  0.94040100  1
  O  O48  1  0.69208600  0.61430500  0.26034100  1
  O  O49  1  0.19208600  0.38569500  0.73965900  1
  O  O50  1  0.19208600  0.88569500  0.26034100  1
  O  O51  1  0.69208600  0.11430500  0.73965900  1
  O  O52  1  0.53029400  0.75545400  0.16414100  1
  O  O53  1  0.03029400  0.24454600  0.83585900  1
  O  O54  1  0.03029400  0.74454600  0.16414100  1
  O  O55  1  0.53029400  0.25545400  0.83585900  1
  O  O56  1  0.57406700  0.83555900  0.30316300  1
  O  O57  1  0.07406700  0.16444100  0.69683700  1
  O  O58  1  0.07406700  0.66444100  0.30316300  1
  O  O59  1  0.57406700  0.33555900  0.69683700  1
  O  O60  1  0.41606900  0.62760300  0.27786800  1
  O  O61  1  0.91606900  0.37239700  0.72213200  1
  O  O62  1  0.91606900  0.87239700  0.27786800  1
  O  O63  1  0.41606900  0.12760300  0.72213200  1
  O  O64  1  0.19055800  0.38247800  0.24294900  1
  O  O65  1  0.69055800  0.61752200  0.75705100  1
  O  O66  1  0.69055800  0.11752200  0.24294900  1
  O  O67  1  0.19055800  0.88247800  0.75705100  1
  O  O68  1  0.06008800  0.16428200  0.20666600  1
  O  O69  1  0.56008800  0.83571800  0.79333400  1
  O  O70  1  0.56008800  0.33571800  0.20666600  1
  O  O71  1  0.06008800  0.66428200  0.79333400  1
  O  O72  1  0.99983400  0.27573400  0.33722400  1
  O  O73  1  0.49983400  0.72426600  0.66277600  1
  O  O74  1  0.49983400  0.22426600  0.33722400  1
  O  O75  1  0.99983400  0.77573400  0.66277600  1
  O  O76  1  0.91802800  0.38622300  0.21034900  1
  O  O77  1  0.41802800  0.61377700  0.78965100  1
  O  O78  1  0.41802800  0.11377700  0.21034900  1
  O  O79  1  0.91802800  0.88622300  0.78965100  1
  O  O80  1  0.09261300  0.36211000  0.52609500  1
  O  O81  1  0.59261300  0.63789000  0.47390500  1
  O  O82  1  0.59261300  0.13789000  0.52609500  1
  O  O83  1  0.09261300  0.86211000  0.47390500  1
  O  O84  1  0.26497800  0.47242300  0.42276000  1
  O  O85  1  0.76497800  0.52757700  0.57724000  1
  O  O86  1  0.76497800  0.02757700  0.42276000  1
  O  O87  1  0.26497800  0.97242300  0.57724000  1
  O  O88  1  0.36833500  0.38002200  0.54943700  1
  O  O89  1  0.86833500  0.61997800  0.45056300  1
  O  O90  1  0.86833500  0.11997800  0.54943700  1
  O  O91  1  0.36833500  0.88002200  0.45056300  1
  O  O92  1  0.20896600  0.59135100  0.55180600  1
  O  O93  1  0.70896600  0.40864900  0.44819400  1
  O  O94  1  0.70896600  0.90864900  0.55180600  1
  O  O95  1  0.20896600  0.09135100  0.44819400  1
