# generated using pymatgen
data_Mg3P4H28(NO12)2
_symmetry_space_group_name_H-M   'P 1'
_cell_length_a   6.76113600
_cell_length_b   7.74361095
_cell_length_c   10.76038042
_cell_angle_alpha   104.65069044
_cell_angle_beta   96.93188151
_cell_angle_gamma   97.91688185
_symmetry_Int_Tables_number   1
_chemical_formula_structural   Mg3P4H28(NO12)2
_chemical_formula_sum   'Mg3 P4 H28 N2 O24'
_cell_volume   532.69626436
_cell_formula_units_Z   1
loop_
 _symmetry_equiv_pos_site_id
 _symmetry_equiv_pos_as_xyz
  1  'x, y, z'
loop_
 _atom_site_type_symbol
 _atom_site_label
 _atom_site_symmetry_multiplicity
 _atom_site_fract_x
 _atom_site_fract_y
 _atom_site_fract_z
 _atom_site_occupancy
  Mg  Mg0  1  0.00000000  0.00000000  0.00000000  1
  Mg  Mg1  1  0.65985400  0.24090000  0.40305100  1
  Mg  Mg2  1  0.34014600  0.75910000  0.59694900  1
  P  P3  1  0.75091400  0.33429100  0.12802100  1
  P  P4  1  0.24908600  0.66570900  0.87197900  1
  P  P5  1  0.79555500  0.69520600  0.52725300  1
  P  P6  1  0.20444500  0.30479400  0.47274700  1
  H  H7  1  0.84407700  0.61263900  0.26547400  1
  H  H8  1  0.15592300  0.38736100  0.73452600  1
  H  H9  1  0.01322800  0.77589200  0.71711300  1
  H  H10  1  0.98677200  0.22410800  0.28288700  1
  H  H11  1  0.62683400  0.78106400  0.02612700  1
  H  H12  1  0.37316600  0.21893600  0.97387300  1
  H  H13  1  0.82169100  0.72788300  0.09335000  1
  H  H14  1  0.17830900  0.27211700  0.90665000  1
  H  H15  1  0.26931500  0.05460000  0.23169000  1
  H  H16  1  0.73068500  0.94540000  0.76831000  1
  H  H17  1  0.29290500  0.88465300  0.11516600  1
  H  H18  1  0.70709500  0.11534700  0.88483400  1
  H  H19  1  0.67917400  0.94334300  0.21651800  1
  H  H20  1  0.32082600  0.05665700  0.78348200  1
  H  H21  1  0.69814600  0.88499600  0.34472100  1
  H  H22  1  0.30185400  0.11500400  0.65527900  1
  H  H23  1  0.89835600  0.18704200  0.59010000  1
  H  H24  1  0.10164400  0.81295800  0.40990000  1
  H  H25  1  0.70426900  0.04150700  0.58426600  1
  H  H26  1  0.29573100  0.95849300  0.41573400  1
  H  H27  1  0.34308600  0.58287800  0.13149200  1
  H  H28  1  0.65691400  0.41712200  0.86850800  1
  H  H29  1  0.42909600  0.45239500  0.22779300  1
  H  H30  1  0.57090400  0.54760500  0.77220700  1
  H  H31  1  0.17829800  0.43820900  0.18132200  1
  H  H32  1  0.82170200  0.56179100  0.81867800  1
  H  H33  1  0.30727100  0.62847300  0.28954300  1
  H  H34  1  0.69272900  0.37152700  0.71045700  1
  N  N35  1  0.31606300  0.52615800  0.20774400  1
  N  N36  1  0.68393700  0.47384200  0.79225600  1
  O  O37  1  0.62828900  0.29064900  0.99075600  1
  O  O38  1  0.37171100  0.70935100  0.00924400  1
  O  O39  1  0.93146300  0.22976500  0.12904300  1
  O  O40  1  0.06853700  0.77023500  0.87095700  1
  O  O41  1  0.61787200  0.30538300  0.22944900  1
  O  O42  1  0.38212800  0.69461700  0.77055100  1
  O  O43  1  0.85012200  0.54691900  0.16975600  1
  O  O44  1  0.14987800  0.45308100  0.83024400  1
  O  O45  1  0.01331300  0.77113600  0.62224200  1
  O  O46  1  0.98668700  0.22886400  0.37775800  1
  O  O47  1  0.64787800  0.81273700  0.59181500  1
  O  O48  1  0.35212200  0.18726300  0.40818500  1
  O  O49  1  0.73518000  0.49635300  0.51671500  1
  O  O50  1  0.26482000  0.50364700  0.48328500  1
  O  O51  1  0.83770400  0.73841200  0.39931600  1
  O  O52  1  0.16229600  0.26158800  0.60068400  1
  O  O53  1  0.77439200  0.82678200  0.06149000  1
  O  O54  1  0.22560800  0.17321800  0.93851000  1
  O  O55  1  0.20238900  0.97097200  0.14721000  1
  O  O56  1  0.79761100  0.02902800  0.85279000  1
  O  O57  1  0.62837700  0.96396300  0.30026600  1
  O  O58  1  0.37162300  0.03603700  0.69973400  1
  O  O59  1  0.74773600  0.16680200  0.57707100  1
  O  O60  1  0.25226400  0.83319800  0.42292900  1
