# generated using pymatgen
data_KCuPH2O5
_symmetry_space_group_name_H-M   'P 1'
_cell_length_a   6.87778700
_cell_length_b   6.80910000
_cell_length_c   10.59877719
_cell_angle_alpha   87.20923249
_cell_angle_beta   90.00000000
_cell_angle_gamma   90.00000000
_symmetry_Int_Tables_number   1
_chemical_formula_structural   KCuPH2O5
_chemical_formula_sum   'K4 Cu4 P4 H8 O20'
_cell_volume   495.76837087
_cell_formula_units_Z   4
loop_
 _symmetry_equiv_pos_site_id
 _symmetry_equiv_pos_as_xyz
  1  'x, y, z'
loop_
 _atom_site_type_symbol
 _atom_site_label
 _atom_site_symmetry_multiplicity
 _atom_site_fract_x
 _atom_site_fract_y
 _atom_site_fract_z
 _atom_site_occupancy
  K  K0  1  0.07608000  0.96415200  0.31512100  1
  K  K1  1  0.57608000  0.53584800  0.68487900  1
  K  K2  1  0.92392000  0.03584800  0.68487900  1
  K  K3  1  0.42392000  0.46415200  0.31512100  1
  Cu  Cu4  1  0.70364000  0.27915000  0.99258900  1
  Cu  Cu5  1  0.20364000  0.22085000  0.00741100  1
  Cu  Cu6  1  0.29636000  0.72085000  0.00741100  1
  Cu  Cu7  1  0.79636000  0.77915000  0.99258900  1
  P  P8  1  0.96601600  0.50076800  0.17622500  1
  P  P9  1  0.46601600  0.99923200  0.82377500  1
  P  P10  1  0.03398400  0.49923200  0.82377500  1
  P  P11  1  0.53398400  0.00076800  0.17622500  1
  H  H12  1  0.86524200  0.34197500  0.42061700  1
  H  H13  1  0.36524200  0.15802500  0.57938300  1
  H  H14  1  0.13475800  0.65802500  0.57938300  1
  H  H15  1  0.63475800  0.84197500  0.42061700  1
  H  H16  1  0.71369700  0.16872200  0.40990400  1
  H  H17  1  0.21369700  0.33127800  0.59009600  1
  H  H18  1  0.28630300  0.83127800  0.59009600  1
  H  H19  1  0.78630300  0.66872200  0.40990400  1
  O  O20  1  0.96357600  0.55929900  0.31310600  1
  O  O21  1  0.46357600  0.94070100  0.68689400  1
  O  O22  1  0.03642400  0.44070100  0.68689400  1
  O  O23  1  0.53642400  0.05929900  0.31310600  1
  O  O24  1  0.11370400  0.32923200  0.16326700  1
  O  O25  1  0.61370400  0.17076800  0.83673300  1
  O  O26  1  0.88629600  0.67076800  0.83673300  1
  O  O27  1  0.38629600  0.82923200  0.16326700  1
  O  O28  1  0.03567400  0.68248600  0.08538400  1
  O  O29  1  0.53567400  0.81751400  0.91461600  1
  O  O30  1  0.96432600  0.31751400  0.91461600  1
  O  O31  1  0.46432600  0.18248600  0.08538400  1
  O  O32  1  0.75727100  0.45059400  0.12985500  1
  O  O33  1  0.25727100  0.04940600  0.87014500  1
  O  O34  1  0.24272900  0.54940600  0.87014500  1
  O  O35  1  0.74272900  0.95059400  0.12985500  1
  O  O36  1  0.82198200  0.21653100  0.46127800  1
  O  O37  1  0.32198200  0.28346900  0.53872200  1
  O  O38  1  0.17801800  0.78346900  0.53872200  1
  O  O39  1  0.67801800  0.71653100  0.46127800  1
