# generated using pymatgen
data_KCa2P4H9O17
_symmetry_space_group_name_H-M   'P 1'
_cell_length_a   19.42820300
_cell_length_b   7.43949000
_cell_length_c   12.92566774
_cell_angle_alpha   55.57788904
_cell_angle_beta   90.00000000
_cell_angle_gamma   90.00000000
_symmetry_Int_Tables_number   1
_chemical_formula_structural   KCa2P4H9O17
_chemical_formula_sum   'K4 Ca8 P16 H36 O68'
_cell_volume   1541.08882933
_cell_formula_units_Z   4
loop_
 _symmetry_equiv_pos_site_id
 _symmetry_equiv_pos_as_xyz
  1  'x, y, z'
loop_
 _atom_site_type_symbol
 _atom_site_label
 _atom_site_symmetry_multiplicity
 _atom_site_fract_x
 _atom_site_fract_y
 _atom_site_fract_z
 _atom_site_occupancy
  K  K0  1  0.89762200  0.19325800  0.65844800  1
  K  K1  1  0.60237800  0.19325800  0.15844800  1
  K  K2  1  0.10237800  0.80674200  0.34155200  1
  K  K3  1  0.39762200  0.80674200  0.84155200  1
  Ca  Ca4  1  0.75496500  0.66774800  0.92447900  1
  Ca  Ca5  1  0.74503500  0.66774800  0.42447900  1
  Ca  Ca6  1  0.24503500  0.33225200  0.07552100  1
  Ca  Ca7  1  0.25496500  0.33225200  0.57552100  1
  Ca  Ca8  1  0.73057500  0.24782900  0.84435800  1
  Ca  Ca9  1  0.76942500  0.24782900  0.34435800  1
  Ca  Ca10  1  0.26942500  0.75217100  0.15564200  1
  Ca  Ca11  1  0.23057500  0.75217100  0.65564200  1
  P  P12  1  0.90115000  0.83369200  0.49367700  1
  P  P13  1  0.59885000  0.83369200  0.99367700  1
  P  P14  1  0.09885000  0.16630800  0.50632300  1
  P  P15  1  0.40115000  0.16630800  0.00632300  1
  P  P16  1  0.88574800  0.56519900  0.77582700  1
  P  P17  1  0.61425200  0.56519900  0.27582700  1
  P  P18  1  0.11425200  0.43480100  0.22417300  1
  P  P19  1  0.38574800  0.43480100  0.72417300  1
  P  P20  1  0.72413400  0.18352100  0.63127800  1
  P  P21  1  0.77586600  0.18352100  0.13127800  1
  P  P22  1  0.27586600  0.81647900  0.36872200  1
  P  P23  1  0.22413400  0.81647900  0.86872200  1
  P  P24  1  0.67604200  0.81443600  0.62911900  1
  P  P25  1  0.82395800  0.81443600  0.12911900  1
  P  P26  1  0.32395800  0.18556400  0.37088100  1
  P  P27  1  0.17604200  0.18556400  0.87088100  1
  H  H28  1  0.00314100  0.66746000  0.54553600  1
  H  H29  1  0.49685900  0.66746000  0.04553600  1
  H  H30  1  0.99685900  0.33254000  0.45446400  1
  H  H31  1  0.50314100  0.33254000  0.95446400  1
  H  H32  1  0.99634800  0.56545700  0.82088600  1
  H  H33  1  0.50365200  0.56545700  0.32088600  1
  H  H34  1  0.00365200  0.43454300  0.17911400  1
  H  H35  1  0.49634800  0.43454300  0.67911400  1
  H  H36  1  0.57620300  0.82678500  0.53652700  1
  H  H37  1  0.92379700  0.82678500  0.03652700  1
  H  H38  1  0.42379700  0.17321500  0.46347300  1
  H  H39  1  0.07620300  0.17321500  0.96347300  1
  H  H40  1  0.59197400  0.35583700  0.62907400  1
  H  H41  1  0.90802600  0.35583700  0.12907400  1
  H  H42  1  0.40802600  0.64416300  0.37092600  1
  H  H43  1  0.09197400  0.64416300  0.87092600  1
  H  H44  1  0.56828100  0.19756400  0.76517500  1
  H  H45  1  0.93171900  0.19756400  0.26517500  1
  H  H46  1  0.43171900  0.80243600  0.23482500  1
  H  H47  1  0.06828100  0.80243600  0.73482500  1
  H  H48  1  0.54909500  0.60256700  0.78641700  1
  H  H49  1  0.95090500  0.60256700  0.28641700  1
  H  H50  1  0.45090500  0.39743300  0.21358300  1
  H  H51  1  0.04909500  0.39743300  0.71358300  1
  H  H52  1  0.57757800  0.59199700  0.90546500  1
  H  H53  1  0.92242200  0.59199700  0.40546500  1
  H  H54  1  0.42242200  0.40800300  0.09453500  1
  H  H55  1  0.07757800  0.40800300  0.59453500  1
  H  H56  1  0.00136400  0.88471000  0.89630400  1
  H  H57  1  0.49863600  0.88471000  0.39630400  1
  H  H58  1  0.99863600  0.11529000  0.10369600  1
  H  H59  1  0.50136400  0.11529000  0.60369600  1
  H  H60  1  0.92966600  0.79090200  0.89222300  1
  H  H61  1  0.57033400  0.79090200  0.39222300  1
  H  H62  1  0.07033400  0.20909800  0.10777700  1
  H  H63  1  0.42966600  0.20909800  0.60777700  1
  O  O64  1  0.86379400  0.66425600  0.48255100  1
  O  O65  1  0.63620600  0.66425600  0.98255100  1
  O  O66  1  0.13620600  0.33574400  0.51744900  1
  O  O67  1  0.36379400  0.33574400  0.01744900  1
  O  O68  1  0.98141700  0.81813000  0.48232400  1
  O  O69  1  0.51858300  0.81813000  0.98232400  1
  O  O70  1  0.01858300  0.18187000  0.51767600  1
  O  O71  1  0.48141700  0.18187000  0.01767600  1
  O  O72  1  0.87929900  0.06797500  0.40099900  1
  O  O73  1  0.62070100  0.06797500  0.90099900  1
  O  O74  1  0.12070100  0.93202500  0.59900100  1
  O  O75  1  0.37929900  0.93202500  0.09900100  1
  O  O76  1  0.88884900  0.78395600  0.63155000  1
  O  O77  1  0.61115100  0.78395600  0.13155000  1
  O  O78  1  0.11115100  0.21604400  0.36845000  1
  O  O79  1  0.38884900  0.21604400  0.86845000  1
  O  O80  1  0.84065100  0.39781700  0.77892600  1
  O  O81  1  0.65934900  0.39781700  0.27892600  1
  O  O82  1  0.15934900  0.60218300  0.22107400  1
  O  O83  1  0.34065100  0.60218300  0.72107400  1
  O  O84  1  0.96132100  0.47195800  0.81054900  1
  O  O85  1  0.53867900  0.47195800  0.31054900  1
  O  O86  1  0.03867900  0.52804200  0.18945100  1
  O  O87  1  0.46132100  0.52804200  0.68945100  1
  O  O88  1  0.86507000  0.65558400  0.85150500  1
  O  O89  1  0.63493000  0.65558400  0.35150500  1
  O  O90  1  0.13493000  0.34441600  0.14849500  1
  O  O91  1  0.36507000  0.34441600  0.64849500  1
  O  O92  1  0.76089900  0.03796400  0.75730900  1
  O  O93  1  0.73910100  0.03796400  0.25730900  1
  O  O94  1  0.23910100  0.96203600  0.24269100  1
  O  O95  1  0.26089900  0.96203600  0.74269100  1
  O  O96  1  0.68794000  0.37188800  0.62604100  1
  O  O97  1  0.81206000  0.37188800  0.12604100  1
  O  O98  1  0.31206000  0.62811200  0.37395900  1
  O  O99  1  0.18794000  0.62811200  0.87395900  1
  O  O100  1  0.77132400  0.27517100  0.51699600  1
  O  O101  1  0.72867600  0.27517100  0.01699600  1
  O  O102  1  0.22867600  0.72482900  0.48300400  1
  O  O103  1  0.27132400  0.72482900  0.98300400  1
  O  O104  1  0.66502900  0.03679500  0.62409300  1
  O  O105  1  0.83497100  0.03679500  0.12409300  1
  O  O106  1  0.33497100  0.96320500  0.37590700  1
  O  O107  1  0.16502900  0.96320500  0.87590700  1
  O  O108  1  0.70509700  0.63862500  0.75633400  1
  O  O109  1  0.79490300  0.63862500  0.25633400  1
  O  O110  1  0.29490300  0.36137500  0.24366600  1
  O  O111  1  0.20509700  0.36137500  0.74366600  1
  O  O112  1  0.59817600  0.75673600  0.62351100  1
  O  O113  1  0.90182400  0.75673600  0.12351100  1
  O  O114  1  0.40182400  0.24326400  0.37648900  1
  O  O115  1  0.09817600  0.24326400  0.87648900  1
  O  O116  1  0.71692500  0.87223400  0.51443200  1
  O  O117  1  0.78307500  0.87223400  0.01443200  1
  O  O118  1  0.28307500  0.12776600  0.48556800  1
  O  O119  1  0.21692500  0.12776600  0.98556800  1
  O  O120  1  0.54956700  0.28437000  0.67800000  1
  O  O121  1  0.95043300  0.28437000  0.17800000  1
  O  O122  1  0.45043300  0.71563000  0.32200000  1
  O  O123  1  0.04956700  0.71563000  0.82200000  1
  O  O124  1  0.53807000  0.55296700  0.87305000  1
  O  O125  1  0.96193000  0.55296700  0.37305000  1
  O  O126  1  0.46193000  0.44703300  0.12695000  1
  O  O127  1  0.03807000  0.44703300  0.62695000  1
  O  O128  1  0.95147200  0.89956900  0.90348700  1
  O  O129  1  0.54852800  0.89956900  0.40348700  1
  O  O130  1  0.04852800  0.10043100  0.09651300  1
  O  O131  1  0.45147200  0.10043100  0.59651300  1
