# generated using pymatgen
data_Zn3P2(H2O3)4
_symmetry_space_group_name_H-M   'P 1'
_cell_length_a   5.09388700
_cell_length_b   10.76003700
_cell_length_c   19.05636000
_cell_angle_alpha   90.00000000
_cell_angle_beta   90.00000000
_cell_angle_gamma   90.00000000
_symmetry_Int_Tables_number   1
_chemical_formula_structural   Zn3P2(H2O3)4
_chemical_formula_sum   'Zn12 P8 H32 O48'
_cell_volume   1044.48695414
_cell_formula_units_Z   4
loop_
 _symmetry_equiv_pos_site_id
 _symmetry_equiv_pos_as_xyz
  1  'x, y, z'
loop_
 _atom_site_type_symbol
 _atom_site_label
 _atom_site_symmetry_multiplicity
 _atom_site_fract_x
 _atom_site_fract_y
 _atom_site_fract_z
 _atom_site_occupancy
  Zn  Zn0  1  0.93786700  0.73852300  0.25000000  1
  Zn  Zn1  1  0.56213300  0.23852300  0.25000000  1
  Zn  Zn2  1  0.06213300  0.26147700  0.75000000  1
  Zn  Zn3  1  0.43786700  0.76147700  0.75000000  1
  Zn  Zn4  1  0.28501200  0.64214300  0.99852200  1
  Zn  Zn5  1  0.21498800  0.14214300  0.50147800  1
  Zn  Zn6  1  0.71498800  0.35785700  0.49852200  1
  Zn  Zn7  1  0.78501200  0.85785700  0.00147800  1
  Zn  Zn8  1  0.71498800  0.35785700  0.00147800  1
  Zn  Zn9  1  0.78501200  0.85785700  0.49852200  1
  Zn  Zn10  1  0.28501200  0.64214300  0.50147800  1
  Zn  Zn11  1  0.21498800  0.14214300  0.99852200  1
  P  P12  1  0.77345000  0.60290500  0.09343900  1
  P  P13  1  0.72655000  0.10290500  0.40656100  1
  P  P14  1  0.22655000  0.39709500  0.59343900  1
  P  P15  1  0.27345000  0.89709500  0.90656100  1
  P  P16  1  0.22655000  0.39709500  0.90656100  1
  P  P17  1  0.27345000  0.89709500  0.59343900  1
  P  P18  1  0.77345000  0.60290500  0.40656100  1
  P  P19  1  0.72655000  0.10290500  0.09343900  1
  H  H20  1  0.37628900  0.61630400  0.20997800  1
  H  H21  1  0.12371100  0.11630400  0.29002200  1
  H  H22  1  0.62371100  0.38369600  0.70997800  1
  H  H23  1  0.87628900  0.88369600  0.79002200  1
  H  H24  1  0.62371100  0.38369600  0.79002200  1
  H  H25  1  0.87628900  0.88369600  0.70997800  1
  H  H26  1  0.37628900  0.61630400  0.29002200  1
  H  H27  1  0.12371100  0.11630400  0.20997800  1
  H  H28  1  0.68944000  0.94960600  0.20988100  1
  H  H29  1  0.81056000  0.44960600  0.29011900  1
  H  H30  1  0.31056000  0.05039400  0.70988100  1
  H  H31  1  0.18944000  0.55039400  0.79011900  1
  H  H32  1  0.31056000  0.05039400  0.79011900  1
  H  H33  1  0.18944000  0.55039400  0.70988100  1
  H  H34  1  0.68944000  0.94960600  0.29011900  1
  H  H35  1  0.81056000  0.44960600  0.20988100  1
  H  H36  1  0.21174500  0.76091500  0.13489400  1
  H  H37  1  0.28825500  0.26091500  0.36510600  1
  H  H38  1  0.78825500  0.23908500  0.63489400  1
  H  H39  1  0.71174500  0.73908500  0.86510600  1
  H  H40  1  0.78825500  0.23908500  0.86510600  1
  H  H41  1  0.71174500  0.73908500  0.63489400  1
  H  H42  1  0.21174500  0.76091500  0.36510600  1
  H  H43  1  0.28825500  0.26091500  0.13489400  1
  H  H44  1  0.05494900  0.88597300  0.13528700  1
  H  H45  1  0.44505100  0.38597300  0.36471300  1
  H  H46  1  0.94505100  0.11402700  0.63528700  1
  H  H47  1  0.55494900  0.61402700  0.86471300  1
  H  H48  1  0.94505100  0.11402700  0.86471300  1
  H  H49  1  0.55494900  0.61402700  0.63528700  1
  H  H50  1  0.05494900  0.88597300  0.36471300  1
  H  H51  1  0.44505100  0.38597300  0.13528700  1
  O  O52  1  0.25350600  0.60994500  0.25000000  1
  O  O53  1  0.24649400  0.10994500  0.25000000  1
  O  O54  1  0.74649400  0.39005500  0.75000000  1
  O  O55  1  0.75350600  0.89005500  0.75000000  1
  O  O56  1  0.69313200  0.89346200  0.25000000  1
  O  O57  1  0.80686800  0.39346200  0.25000000  1
  O  O58  1  0.30686800  0.10653800  0.75000000  1
  O  O59  1  0.19313200  0.60653800  0.75000000  1
  O  O60  1  0.15449600  0.82807800  0.16580900  1
  O  O61  1  0.34550400  0.32807800  0.33419100  1
  O  O62  1  0.84550400  0.17192200  0.66580900  1
  O  O63  1  0.65449600  0.67192200  0.83419100  1
  O  O64  1  0.84550400  0.17192200  0.83419100  1
  O  O65  1  0.65449600  0.67192200  0.66580900  1
  O  O66  1  0.15449600  0.82807800  0.33419100  1
  O  O67  1  0.34550400  0.32807800  0.16580900  1
  O  O68  1  0.71506200  0.63681900  0.16990300  1
  O  O69  1  0.78493800  0.13681900  0.33009700  1
  O  O70  1  0.28493800  0.36318100  0.66990300  1
  O  O71  1  0.21506200  0.86318100  0.83009700  1
  O  O72  1  0.28493800  0.36318100  0.83009700  1
  O  O73  1  0.21506200  0.86318100  0.66990300  1
  O  O74  1  0.71506200  0.63681900  0.33009700  1
  O  O75  1  0.78493800  0.13681900  0.16990300  1
  O  O76  1  0.07177100  0.60596600  0.07929700  1
  O  O77  1  0.42822900  0.10596600  0.42070300  1
  O  O78  1  0.92822900  0.39403400  0.57929700  1
  O  O79  1  0.57177100  0.89403400  0.92070300  1
  O  O80  1  0.92822900  0.39403400  0.92070300  1
  O  O81  1  0.57177100  0.89403400  0.57929700  1
  O  O82  1  0.07177100  0.60596600  0.42070300  1
  O  O83  1  0.42822900  0.10596600  0.07929700  1
  O  O84  1  0.84671400  0.97203200  0.07832100  1
  O  O85  1  0.65328600  0.47203200  0.42167900  1
  O  O86  1  0.15328600  0.02796800  0.57832100  1
  O  O87  1  0.34671400  0.52796800  0.92167900  1
  O  O88  1  0.15328600  0.02796800  0.92167900  1
  O  O89  1  0.34671400  0.52796800  0.57832100  1
  O  O90  1  0.84671400  0.97203200  0.42167900  1
  O  O91  1  0.65328600  0.47203200  0.07832100  1
  O  O92  1  0.63535100  0.69568200  0.03952300  1
  O  O93  1  0.86464900  0.19568200  0.46047700  1
  O  O94  1  0.36464900  0.30431800  0.53952300  1
  O  O95  1  0.13535100  0.80431800  0.96047700  1
  O  O96  1  0.36464900  0.30431800  0.96047700  1
  O  O97  1  0.13535100  0.80431800  0.53952300  1
  O  O98  1  0.63535100  0.69568200  0.46047700  1
  O  O99  1  0.86464900  0.19568200  0.03952300  1
