# generated using pymatgen
data_MgB3H15O13
_symmetry_space_group_name_H-M   'P 1'
_cell_length_a   13.16383700
_cell_length_b   6.84912200
_cell_length_c   12.10909732
_cell_angle_alpha   75.35854467
_cell_angle_beta   90.00000000
_cell_angle_gamma   90.00000000
_symmetry_Int_Tables_number   1
_chemical_formula_structural   MgB3H15O13
_chemical_formula_sum   'Mg4 B12 H60 O52'
_cell_volume   1056.31161073
_cell_formula_units_Z   4
loop_
 _symmetry_equiv_pos_site_id
 _symmetry_equiv_pos_as_xyz
  1  'x, y, z'
loop_
 _atom_site_type_symbol
 _atom_site_label
 _atom_site_symmetry_multiplicity
 _atom_site_fract_x
 _atom_site_fract_y
 _atom_site_fract_z
 _atom_site_occupancy
  Mg  Mg0  1  0.71544100  0.74565100  0.61662000  1
  Mg  Mg1  1  0.21544100  0.25434900  0.88338000  1
  Mg  Mg2  1  0.28455900  0.25434900  0.38338000  1
  Mg  Mg3  1  0.78455900  0.74565100  0.11662000  1
  B  B4  1  0.61812300  0.40028000  0.81429200  1
  B  B5  1  0.11812300  0.59972000  0.68570800  1
  B  B6  1  0.38187700  0.59972000  0.18570800  1
  B  B7  1  0.88187700  0.40028000  0.31429200  1
  B  B8  1  0.48602700  0.62069400  0.69238000  1
  B  B9  1  0.98602700  0.37930600  0.80762000  1
  B  B10  1  0.51397300  0.37930600  0.30762000  1
  B  B11  1  0.01397300  0.62069400  0.19238000  1
  B  B12  1  0.51631500  0.27757500  0.66951900  1
  B  B13  1  0.01631500  0.72242500  0.83048100  1
  B  B14  1  0.48368500  0.72242500  0.33048100  1
  B  B15  1  0.98368500  0.27757500  0.16951900  1
  H  H16  1  0.58864700  0.26131900  0.98567700  1
  H  H17  1  0.08864700  0.73868100  0.51432300  1
  H  H18  1  0.41135300  0.73868100  0.01432300  1
  H  H19  1  0.91135300  0.26131900  0.48567700  1
  H  H20  1  0.77194500  0.41787000  0.77158700  1
  H  H21  1  0.27194500  0.58213000  0.72841300  1
  H  H22  1  0.22805500  0.58213000  0.22841300  1
  H  H23  1  0.72805500  0.41787000  0.27158700  1
  H  H24  1  0.39037800  0.80718900  0.75394700  1
  H  H25  1  0.89037800  0.19281100  0.74605300  1
  H  H26  1  0.60962200  0.19281100  0.24605300  1
  H  H27  1  0.10962200  0.80718900  0.25394700  1
  H  H28  1  0.52711700  0.00485200  0.62478800  1
  H  H29  1  0.02711700  0.99514800  0.87521200  1
  H  H30  1  0.47288300  0.99514800  0.37521200  1
  H  H31  1  0.97288300  0.00485200  0.12478800  1
  H  H32  1  0.53528100  0.78986500  0.53576000  1
  H  H33  1  0.03528100  0.21013500  0.96424000  1
  H  H34  1  0.46471900  0.21013500  0.46424000  1
  H  H35  1  0.96471900  0.78986500  0.03576000  1
  H  H36  1  0.75802700  0.49165100  0.47405900  1
  H  H37  1  0.25802700  0.50834900  0.02594100  1
  H  H38  1  0.24197300  0.50834900  0.52594100  1
  H  H39  1  0.74197300  0.49165100  0.97405900  1
  H  H40  1  0.64230800  0.55585400  0.44797000  1
  H  H41  1  0.14230800  0.44414600  0.05203000  1
  H  H42  1  0.35769200  0.44414600  0.55203000  1
  H  H43  1  0.85769200  0.55585400  0.94797000  1
  H  H44  1  0.76904500  0.12180100  0.47063500  1
  H  H45  1  0.26904500  0.87819900  0.02936500  1
  H  H46  1  0.23095500  0.87819900  0.52936500  1
  H  H47  1  0.73095500  0.12180100  0.97063500  1
  H  H48  1  0.66269900  0.06747800  0.43045100  1
  H  H49  1  0.16269900  0.93252200  0.06954900  1
  H  H50  1  0.33730100  0.93252200  0.56954900  1
  H  H51  1  0.83730100  0.06747800  0.93045100  1
  H  H52  1  0.91642500  0.61445000  0.64187200  1
  H  H53  1  0.41642500  0.38555000  0.85812800  1
  H  H54  1  0.08357500  0.38555000  0.35812800  1
  H  H55  1  0.58357500  0.61445000  0.14187200  1
  H  H56  1  0.90442200  0.78297800  0.52898400  1
  H  H57  1  0.40442200  0.21702200  0.97101600  1
  H  H58  1  0.09557800  0.21702200  0.47101600  1
  H  H59  1  0.59557800  0.78297800  0.02898400  1
  H  H60  1  0.68591300  0.04561200  0.73836500  1
  H  H61  1  0.18591300  0.95438800  0.76163500  1
  H  H62  1  0.31408700  0.95438800  0.26163500  1
  H  H63  1  0.81408700  0.04561200  0.23836500  1
  H  H64  1  0.74653100  0.86258500  0.81308700  1
  H  H65  1  0.24653100  0.13741500  0.68691300  1
  H  H66  1  0.25346900  0.13741500  0.18691300  1
  H  H67  1  0.75346900  0.86258500  0.31308700  1
  H  H68  1  0.53455800  0.97433400  0.86415800  1
  H  H69  1  0.03455800  0.02566600  0.63584200  1
  H  H70  1  0.46544200  0.02566600  0.13584200  1
  H  H71  1  0.96544200  0.97433400  0.36415800  1
  H  H72  1  0.53352400  0.73498000  0.87032400  1
  H  H73  1  0.03352400  0.26502000  0.62967600  1
  H  H74  1  0.46647600  0.26502000  0.12967600  1
  H  H75  1  0.96647600  0.73498000  0.37032400  1
  O  O76  1  0.64619200  0.31388700  0.93481400  1
  O  O77  1  0.14619200  0.68611300  0.56518600  1
  O  O78  1  0.35380800  0.68611300  0.06518600  1
  O  O79  1  0.85380800  0.31388700  0.43481400  1
  O  O80  1  0.70895400  0.49987700  0.75446400  1
  O  O81  1  0.20895400  0.50012300  0.74553600  1
  O  O82  1  0.29104600  0.50012300  0.24553600  1
  O  O83  1  0.79104600  0.49987700  0.25446400  1
  O  O84  1  0.58452200  0.23126100  0.75915400  1
  O  O85  1  0.08452200  0.76873900  0.74084600  1
  O  O86  1  0.41547800  0.76873900  0.24084600  1
  O  O87  1  0.91547800  0.23126100  0.25915400  1
  O  O88  1  0.53312900  0.54443900  0.80426900  1
  O  O89  1  0.03312900  0.45556100  0.69573100  1
  O  O90  1  0.46687100  0.45556100  0.19573100  1
  O  O91  1  0.96687100  0.54443900  0.30426900  1
  O  O92  1  0.38689600  0.71936000  0.70220200  1
  O  O93  1  0.88689600  0.28064000  0.79779800  1
  O  O94  1  0.61310400  0.28064000  0.29779800  1
  O  O95  1  0.11310400  0.71936000  0.20220200  1
  O  O96  1  0.46526400  0.45737300  0.63632600  1
  O  O97  1  0.96526400  0.54262700  0.86367400  1
  O  O98  1  0.53473600  0.54262700  0.36367400  1
  O  O99  1  0.03473600  0.45737300  0.13632600  1
  O  O100  1  0.49250900  0.13934800  0.60788700  1
  O  O101  1  0.99250900  0.86065200  0.89211300  1
  O  O102  1  0.50749100  0.86065200  0.39211300  1
  O  O103  1  0.00749100  0.13934800  0.10788700  1
  O  O104  1  0.55694300  0.77069900  0.61675800  1
  O  O105  1  0.05694300  0.22930100  0.88324200  1
  O  O106  1  0.44305700  0.22930100  0.38324200  1
  O  O107  1  0.94305700  0.77069900  0.11675800  1
  O  O108  1  0.70397600  0.58054400  0.48984400  1
  O  O109  1  0.20397600  0.41945600  0.01015600  1
  O  O110  1  0.29602400  0.41945600  0.51015600  1
  O  O111  1  0.79602400  0.58054400  0.98984400  1
  O  O112  1  0.71719900  0.01130700  0.48473400  1
  O  O113  1  0.21719900  0.98869300  0.01526600  1
  O  O114  1  0.28280100  0.98869300  0.51526600  1
  O  O115  1  0.78280100  0.01130700  0.98473400  1
  O  O116  1  0.87001400  0.72355500  0.60339300  1
  O  O117  1  0.37001400  0.27644500  0.89660700  1
  O  O118  1  0.12998600  0.27644500  0.39660700  1
  O  O119  1  0.62998600  0.72355500  0.10339300  1
  O  O120  1  0.73382600  0.93692700  0.73398000  1
  O  O121  1  0.23382600  0.06307300  0.76602000  1
  O  O122  1  0.26617400  0.06307300  0.26602000  1
  O  O123  1  0.76617400  0.93692700  0.23398000  1
  O  O124  1  0.51891100  0.83961700  0.91366400  1
  O  O125  1  0.01891100  0.16038300  0.58633600  1
  O  O126  1  0.48108900  0.16038300  0.08633600  1
  O  O127  1  0.98108900  0.83961700  0.41366400  1
