# generated using pymatgen
data_NaGa(H2N)4
_symmetry_space_group_name_H-M   'P 1'
_cell_length_a   6.45046400
_cell_length_b   7.48164000
_cell_length_c   13.46956402
_cell_angle_alpha   83.53150012
_cell_angle_beta   90.00000000
_cell_angle_gamma   90.00000000
_symmetry_Int_Tables_number   1
_chemical_formula_structural   NaGa(H2N)4
_chemical_formula_sum   'Na4 Ga4 H32 N16'
_cell_volume   645.90362240
_cell_formula_units_Z   4
loop_
 _symmetry_equiv_pos_site_id
 _symmetry_equiv_pos_as_xyz
  1  'x, y, z'
loop_
 _atom_site_type_symbol
 _atom_site_label
 _atom_site_symmetry_multiplicity
 _atom_site_fract_x
 _atom_site_fract_y
 _atom_site_fract_z
 _atom_site_occupancy
  Na  Na0  1  0.77737200  0.24485000  0.81468100  1
  Na  Na1  1  0.72262800  0.24485000  0.31468100  1
  Na  Na2  1  0.27737200  0.75515000  0.68531900  1
  Na  Na3  1  0.22262800  0.75515000  0.18531900  1
  Ga  Ga4  1  0.35703000  0.24383300  0.65770100  1
  Ga  Ga5  1  0.14297000  0.24383300  0.15770100  1
  Ga  Ga6  1  0.85703000  0.75616700  0.84229900  1
  Ga  Ga7  1  0.64297000  0.75616700  0.34229900  1
  H  H8  1  0.10634700  0.04435600  0.57727500  1
  H  H9  1  0.39365300  0.04435600  0.07727500  1
  H  H10  1  0.32682700  0.05671700  0.51831700  1
  H  H11  1  0.17317300  0.05671700  0.01831700  1
  H  H12  1  0.71143800  0.12280200  0.63828500  1
  H  H13  1  0.78856200  0.12280200  0.13828500  1
  H  H14  1  0.15832900  0.14127200  0.81844000  1
  H  H15  1  0.34167100  0.14127200  0.31844000  1
  H  H16  1  0.33643500  0.28509800  0.84097400  1
  H  H17  1  0.16356500  0.28509800  0.34097400  1
  H  H18  1  0.71164800  0.33062700  0.58859100  1
  H  H19  1  0.78835200  0.33062700  0.08859100  1
  H  H20  1  0.59233400  0.52754400  0.89956400  1
  H  H21  1  0.90766600  0.52754400  0.39956400  1
  H  H22  1  0.79861700  0.48777500  0.96624000  1
  H  H23  1  0.70138300  0.48777500  0.46624000  1
  H  H24  1  0.29861700  0.51222500  0.53376000  1
  H  H25  1  0.20138300  0.51222500  0.03376000  1
  H  H26  1  0.09233400  0.47245600  0.60043600  1
  H  H27  1  0.40766600  0.47245600  0.10043600  1
  H  H28  1  0.21164800  0.66937300  0.91140900  1
  H  H29  1  0.28835200  0.66937300  0.41140900  1
  H  H30  1  0.83643500  0.71490200  0.65902600  1
  H  H31  1  0.66356500  0.71490200  0.15902600  1
  H  H32  1  0.65832900  0.85872800  0.68156000  1
  H  H33  1  0.84167100  0.85872800  0.18156000  1
  H  H34  1  0.21143800  0.87719800  0.86171500  1
  H  H35  1  0.28856200  0.87719800  0.36171500  1
  H  H36  1  0.82682700  0.94328300  0.98168300  1
  H  H37  1  0.67317300  0.94328300  0.48168300  1
  H  H38  1  0.60634700  0.95564400  0.92272500  1
  H  H39  1  0.89365300  0.95564400  0.42272500  1
  N  N40  1  0.26365100  0.04466000  0.58841500  1
  N  N41  1  0.23634900  0.04466000  0.08841500  1
  N  N42  1  0.30499700  0.18308900  0.79856500  1
  N  N43  1  0.19500300  0.18308900  0.29856500  1
  N  N44  1  0.65674000  0.24844900  0.64849100  1
  N  N45  1  0.84326000  0.24844900  0.14849100  1
  N  N46  1  0.25040000  0.48159600  0.60618200  1
  N  N47  1  0.24960000  0.48159600  0.10618200  1
  N  N48  1  0.75040000  0.51840400  0.89381800  1
  N  N49  1  0.74960000  0.51840400  0.39381800  1
  N  N50  1  0.15674000  0.75155100  0.85150900  1
  N  N51  1  0.34326000  0.75155100  0.35150900  1
  N  N52  1  0.80499700  0.81691100  0.70143500  1
  N  N53  1  0.69500300  0.81691100  0.20143500  1
  N  N54  1  0.76365100  0.95534000  0.91158500  1
  N  N55  1  0.73634900  0.95534000  0.41158500  1
