# generated using pymatgen
data_PH6(NO)2
_symmetry_space_group_name_H-M   'P 1'
_cell_length_a   8.34161100
_cell_length_b   7.04153500
_cell_length_c   7.79657936
_cell_angle_alpha   63.39403519
_cell_angle_beta   90.00000000
_cell_angle_gamma   90.00000000
_symmetry_Int_Tables_number   1
_chemical_formula_structural   PH6(NO)2
_chemical_formula_sum   'P4 H24 N8 O8'
_cell_volume   409.45971004
_cell_formula_units_Z   4
loop_
 _symmetry_equiv_pos_site_id
 _symmetry_equiv_pos_as_xyz
  1  'x, y, z'
loop_
 _atom_site_type_symbol
 _atom_site_label
 _atom_site_symmetry_multiplicity
 _atom_site_fract_x
 _atom_site_fract_y
 _atom_site_fract_z
 _atom_site_occupancy
  P  P0  1  0.52641500  0.14789200  0.86768800  1
  P  P1  1  0.02641500  0.35210800  0.13231200  1
  P  P2  1  0.47358500  0.85210800  0.13231200  1
  P  P3  1  0.97358500  0.64789200  0.86768800  1
  H  H4  1  0.79504200  0.18027000  0.92933400  1
  H  H5  1  0.29504200  0.31973000  0.07066600  1
  H  H6  1  0.20495800  0.81973000  0.07066600  1
  H  H7  1  0.70495800  0.68027000  0.92933400  1
  H  H8  1  0.77321900  0.06011700  0.78911600  1
  H  H9  1  0.27321900  0.43988300  0.21088400  1
  H  H10  1  0.22678100  0.93988300  0.21088400  1
  H  H11  1  0.72678100  0.56011700  0.78911600  1
  H  H12  1  0.59409500  0.13215000  0.30792900  1
  H  H13  1  0.09409500  0.36785000  0.69207100  1
  H  H14  1  0.40590500  0.86785000  0.69207100  1
  H  H15  1  0.90590500  0.63215000  0.30792900  1
  H  H16  1  0.56980000  0.40038300  0.24453400  1
  H  H17  1  0.06980000  0.09961700  0.75546600  1
  H  H18  1  0.43020000  0.59961700  0.75546600  1
  H  H19  1  0.93020000  0.90038300  0.24453400  1
  H  H20  1  0.57027400  0.21632700  0.47888400  1
  H  H21  1  0.07027400  0.28367300  0.52111600  1
  H  H22  1  0.42972600  0.78367300  0.52111600  1
  H  H23  1  0.92972600  0.71632700  0.47888400  1
  H  H24  1  0.74287600  0.27930100  0.34224500  1
  H  H25  1  0.24287600  0.22069900  0.65775500  1
  H  H26  1  0.25712400  0.72069900  0.65775500  1
  H  H27  1  0.75712400  0.77930100  0.34224500  1
  N  N28  1  0.72395200  0.17056800  0.82518900  1
  N  N29  1  0.22395200  0.32943200  0.17481100  1
  N  N30  1  0.27604800  0.82943200  0.17481100  1
  N  N31  1  0.77604800  0.67056800  0.82518900  1
  N  N32  1  0.61905800  0.25516700  0.34367500  1
  N  N33  1  0.11905800  0.24483300  0.65632500  1
  N  N34  1  0.38094200  0.74483300  0.65632500  1
  N  N35  1  0.88094200  0.75516700  0.34367500  1
  O  O36  1  0.47270000  0.33255100  0.90470100  1
  O  O37  1  0.97270000  0.16744900  0.09529900  1
  O  O38  1  0.52730000  0.66744900  0.09529900  1
  O  O39  1  0.02730000  0.83255200  0.90470100  1
  O  O40  1  0.44750300  0.12465300  0.69924500  1
  O  O41  1  0.94750300  0.37534700  0.30075500  1
  O  O42  1  0.55249700  0.87534700  0.30075500  1
  O  O43  1  0.05249700  0.62465300  0.69924500  1
