# generated using pymatgen
data_ZnH8(O2F)2
_symmetry_space_group_name_H-M   'P 1'
_cell_length_a   5.34735000
_cell_length_b   7.59004600
_cell_length_c   12.70037600
_cell_angle_alpha   90.00000000
_cell_angle_beta   90.00000000
_cell_angle_gamma   90.00000000
_symmetry_Int_Tables_number   1
_chemical_formula_structural   ZnH8(O2F)2
_chemical_formula_sum   'Zn4 H32 O16 F8'
_cell_volume   515.46549305
_cell_formula_units_Z   4
loop_
 _symmetry_equiv_pos_site_id
 _symmetry_equiv_pos_as_xyz
  1  'x, y, z'
loop_
 _atom_site_type_symbol
 _atom_site_label
 _atom_site_symmetry_multiplicity
 _atom_site_fract_x
 _atom_site_fract_y
 _atom_site_fract_z
 _atom_site_occupancy
  Zn  Zn0  1  0.79454100  0.24730900  0.62427100  1
  Zn  Zn1  1  0.20545900  0.74730900  0.37572900  1
  Zn  Zn2  1  0.79454100  0.74730900  0.87572900  1
  Zn  Zn3  1  0.20545900  0.24730900  0.12427100  1
  H  H4  1  0.06598100  0.01379400  0.73326000  1
  H  H5  1  0.93401900  0.51379400  0.26674000  1
  H  H6  1  0.06598100  0.51379400  0.76674000  1
  H  H7  1  0.93401900  0.01379400  0.23326000  1
  H  H8  1  0.35375000  0.42647500  0.61787300  1
  H  H9  1  0.64625000  0.92647500  0.38212700  1
  H  H10  1  0.35375000  0.92647500  0.88212700  1
  H  H11  1  0.64625000  0.42647500  0.11787300  1
  H  H12  1  0.05282600  0.13665600  0.92356700  1
  H  H13  1  0.94717400  0.63665600  0.07643300  1
  H  H14  1  0.05282600  0.63665600  0.57643300  1
  H  H15  1  0.94717400  0.13665600  0.42356700  1
  H  H16  1  0.06889500  0.34811900  0.92249100  1
  H  H17  1  0.93110500  0.84811900  0.07750900  1
  H  H18  1  0.06889500  0.84811900  0.57750900  1
  H  H19  1  0.93110500  0.34811900  0.42249100  1
  H  H20  1  0.63089400  0.36351800  0.82530200  1
  H  H21  1  0.36910600  0.86351800  0.17469800  1
  H  H22  1  0.63089400  0.86351800  0.67469800  1
  H  H23  1  0.36910600  0.36351800  0.32530200  1
  H  H24  1  0.61424800  0.15326500  0.82593300  1
  H  H25  1  0.38575200  0.65326500  0.17406700  1
  H  H26  1  0.61424800  0.65326500  0.67406700  1
  H  H27  1  0.38575200  0.15326500  0.32593300  1
  H  H28  1  0.50698000  0.48448400  0.51745400  1
  H  H29  1  0.49302000  0.98448400  0.48254600  1
  H  H30  1  0.50698000  0.98448400  0.98254600  1
  H  H31  1  0.49302000  0.48448400  0.01745400  1
  H  H32  1  0.24850000  0.07663000  0.63986000  1
  H  H33  1  0.75150000  0.57663000  0.36014000  1
  H  H34  1  0.24850000  0.57663000  0.86014000  1
  H  H35  1  0.75150000  0.07663000  0.13986000  1
  O  O36  1  0.06969200  0.05136600  0.65711700  1
  O  O37  1  0.93030800  0.55136600  0.34288300  1
  O  O38  1  0.06969200  0.55136600  0.84288300  1
  O  O39  1  0.93030800  0.05136600  0.15711700  1
  O  O40  1  0.66386500  0.25606900  0.78332800  1
  O  O41  1  0.33613500  0.75606900  0.21667200  1
  O  O42  1  0.66386500  0.75606900  0.71667200  1
  O  O43  1  0.33613500  0.25606900  0.28332800  1
  O  O44  1  0.08336300  0.24224300  0.96724800  1
  O  O45  1  0.91663700  0.74224300  0.03275200  1
  O  O46  1  0.08336300  0.74224300  0.53275200  1
  O  O47  1  0.91663700  0.24224300  0.46724800  1
  O  O48  1  0.52793000  0.45039300  0.59339400  1
  O  O49  1  0.47207000  0.95039300  0.40660600  1
  O  O50  1  0.52793000  0.95039300  0.90660600  1
  O  O51  1  0.47207000  0.45039300  0.09339400  1
  F  F52  1  0.54119400  0.04325800  0.60268800  1
  F  F53  1  0.45880600  0.54325800  0.39731200  1
  F  F54  1  0.54119400  0.54325800  0.89731200  1
  F  F55  1  0.45880600  0.04325800  0.10268800  1
  F  F56  1  0.05689600  0.44842100  0.65008900  1
  F  F57  1  0.94310400  0.94842100  0.34991100  1
  F  F58  1  0.05689600  0.94842100  0.84991100  1
  F  F59  1  0.94310400  0.44842100  0.15008900  1
