# generated using pymatgen
data_HS3N
_symmetry_space_group_name_H-M   'P 1'
_cell_length_a   8.53720200
_cell_length_b   13.13900700
_cell_length_c   14.62223900
_cell_angle_alpha   90.00000000
_cell_angle_beta   90.00000000
_cell_angle_gamma   90.00000000
_symmetry_Int_Tables_number   1
_chemical_formula_structural   HS3N
_chemical_formula_sum   'H16 S48 N16'
_cell_volume   1640.18176641
_cell_formula_units_Z   16
loop_
 _symmetry_equiv_pos_site_id
 _symmetry_equiv_pos_as_xyz
  1  'x, y, z'
loop_
 _atom_site_type_symbol
 _atom_site_label
 _atom_site_symmetry_multiplicity
 _atom_site_fract_x
 _atom_site_fract_y
 _atom_site_fract_z
 _atom_site_occupancy
  H  H0  1  0.62994700  0.06257000  0.16968100  1
  H  H1  1  0.12994700  0.43743000  0.83031900  1
  H  H2  1  0.37005300  0.56257000  0.33031900  1
  H  H3  1  0.87005300  0.93743000  0.66968100  1
  H  H4  1  0.37005300  0.93743000  0.83031900  1
  H  H5  1  0.87005300  0.56257000  0.16968100  1
  H  H6  1  0.62994700  0.43743000  0.66968100  1
  H  H7  1  0.12994700  0.06257000  0.33031900  1
  H  H8  1  0.79279700  0.23049300  0.00710400  1
  H  H9  1  0.29279700  0.26950700  0.99289600  1
  H  H10  1  0.20720300  0.73049300  0.49289600  1
  H  H11  1  0.70720300  0.76950700  0.50710400  1
  H  H12  1  0.20720300  0.76950700  0.99289600  1
  H  H13  1  0.70720300  0.73049300  0.00710400  1
  H  H14  1  0.79279700  0.26950700  0.50710400  1
  H  H15  1  0.29279700  0.23049300  0.49289600  1
  S  S16  1  0.59125600  0.34998400  0.99074400  1
  S  S17  1  0.09125600  0.15001600  0.00925600  1
  S  S18  1  0.40874400  0.84998400  0.50925600  1
  S  S19  1  0.90874400  0.65001600  0.49074400  1
  S  S20  1  0.40874400  0.65001600  0.00925600  1
  S  S21  1  0.90874400  0.84998400  0.99074400  1
  S  S22  1  0.59125600  0.15001600  0.49074400  1
  S  S23  1  0.09125600  0.34998400  0.50925600  1
  S  S24  1  0.39581500  0.14536800  0.20259500  1
  S  S25  1  0.89581500  0.35463200  0.79740500  1
  S  S26  1  0.60418500  0.64536800  0.29740500  1
  S  S27  1  0.10418500  0.85463200  0.70259500  1
  S  S28  1  0.60418500  0.85463200  0.79740500  1
  S  S29  1  0.10418500  0.64536800  0.20259500  1
  S  S30  1  0.39581500  0.35463200  0.70259500  1
  S  S31  1  0.89581500  0.14536800  0.29740500  1
  S  S32  1  0.59558400  0.43384100  0.11055100  1
  S  S33  1  0.09558400  0.06615900  0.88944900  1
  S  S34  1  0.40441600  0.93384100  0.38944900  1
  S  S35  1  0.90441600  0.56615900  0.61055100  1
  S  S36  1  0.40441600  0.56615900  0.88944900  1
  S  S37  1  0.90441600  0.93384100  0.11055100  1
  S  S38  1  0.59558400  0.06615900  0.61055100  1
  S  S39  1  0.09558400  0.43384100  0.38944900  1
  S  S40  1  0.40086400  0.39940900  0.18935600  1
  S  S41  1  0.90086400  0.10059100  0.81064400  1
  S  S42  1  0.59913600  0.89940900  0.31064400  1
  S  S43  1  0.09913600  0.60059100  0.68935600  1
  S  S44  1  0.59913600  0.60059100  0.81064400  1
  S  S45  1  0.09913600  0.89940900  0.18935600  1
  S  S46  1  0.40086400  0.10059100  0.68935600  1
  S  S47  1  0.90086400  0.39940900  0.31064400  1
  S  S48  1  0.46036100  0.27583600  0.27080700  1
  S  S49  1  0.96036100  0.22416400  0.72919300  1
  S  S50  1  0.53963900  0.77583600  0.22919300  1
  S  S51  1  0.03963900  0.72416400  0.77080700  1
  S  S52  1  0.53963900  0.72416400  0.72919300  1
  S  S53  1  0.03963900  0.77583600  0.27080700  1
  S  S54  1  0.46036100  0.22416400  0.77080700  1
  S  S55  1  0.96036100  0.27583600  0.22919300  1
  S  S56  1  0.56822300  0.12800600  0.02470000  1
  S  S57  1  0.06822300  0.37199400  0.97530000  1
  S  S58  1  0.43177700  0.62800600  0.47530000  1
  S  S59  1  0.93177700  0.87199400  0.52470000  1
  S  S60  1  0.43177700  0.87199400  0.97530000  1
  S  S61  1  0.93177700  0.62800600  0.02470000  1
  S  S62  1  0.56822300  0.37199400  0.52470000  1
  S  S63  1  0.06822300  0.12800600  0.47530000  1
  N  N64  1  0.54471100  0.10365300  0.13704800  1
  N  N65  1  0.04471100  0.39634700  0.86295200  1
  N  N66  1  0.45528900  0.60365300  0.36295200  1
  N  N67  1  0.95528900  0.89634700  0.63704800  1
  N  N68  1  0.45528900  0.89634700  0.86295200  1
  N  N69  1  0.95528900  0.60365300  0.13704800  1
  N  N70  1  0.54471100  0.39634700  0.63704800  1
  N  N71  1  0.04471100  0.10365300  0.36295200  1
  N  N72  1  0.67268600  0.23482200  0.00808400  1
  N  N73  1  0.17268600  0.26517800  0.99191600  1
  N  N74  1  0.32731400  0.73482200  0.49191600  1
  N  N75  1  0.82731400  0.76517800  0.50808400  1
  N  N76  1  0.32731400  0.76517800  0.99191600  1
  N  N77  1  0.82731400  0.73482200  0.00808400  1
  N  N78  1  0.67268600  0.26517800  0.50808400  1
  N  N79  1  0.17268600  0.23482200  0.49191600  1
