# generated using pymatgen
data_B10H13
_symmetry_space_group_name_H-M   'P 1'
_cell_length_a   15.65612800
_cell_length_b   7.33463500
_cell_length_c   16.60658289
_cell_angle_alpha   65.25736117
_cell_angle_beta   90.00000000
_cell_angle_gamma   90.00000000
_symmetry_Int_Tables_number   1
_chemical_formula_structural   B10H13
_chemical_formula_sum   'B80 H104'
_cell_volume   1731.90150055
_cell_formula_units_Z   8
loop_
 _symmetry_equiv_pos_site_id
 _symmetry_equiv_pos_as_xyz
  1  'x, y, z'
loop_
 _atom_site_type_symbol
 _atom_site_label
 _atom_site_symmetry_multiplicity
 _atom_site_fract_x
 _atom_site_fract_y
 _atom_site_fract_z
 _atom_site_occupancy
  B  B0  1  0.91820900  0.21382900  0.15805600  1
  B  B1  1  0.58179100  0.21382900  0.65805600  1
  B  B2  1  0.08179100  0.78617100  0.84194400  1
  B  B3  1  0.41820900  0.78617100  0.34194400  1
  B  B4  1  0.95669800  0.31461100  0.23304500  1
  B  B5  1  0.54330200  0.31461100  0.73304500  1
  B  B6  1  0.04330200  0.68538900  0.76695500  1
  B  B7  1  0.45669800  0.68538900  0.26695500  1
  B  B8  1  0.02241700  0.32409200  0.14485700  1
  B  B9  1  0.47758300  0.32409200  0.64485700  1
  B  B10  1  0.97758300  0.67590800  0.85514300  1
  B  B11  1  0.52241700  0.67590800  0.35514300  1
  B  B12  1  0.00377500  0.13085300  0.10948900  1
  B  B13  1  0.49622500  0.13085300  0.60948900  1
  B  B14  1  0.99622500  0.86914700  0.89051100  1
  B  B15  1  0.50377500  0.86914700  0.39051100  1
  B  B16  1  0.90523200  0.07560900  0.27348800  1
  B  B17  1  0.59476800  0.07560900  0.77348800  1
  B  B18  1  0.09476800  0.92439100  0.72651200  1
  B  B19  1  0.40523200  0.92439100  0.22651200  1
  B  B20  1  0.99029800  0.12769300  0.33200600  1
  B  B21  1  0.50970200  0.12769300  0.83200600  1
  B  B22  1  0.00970200  0.87230700  0.66799400  1
  B  B23  1  0.49029800  0.87230700  0.16799400  1
  B  B24  1  0.06812300  0.25653900  0.24967700  1
  B  B25  1  0.43187700  0.25653900  0.74967700  1
  B  B26  1  0.93187700  0.74346100  0.75032300  1
  B  B27  1  0.56812300  0.74346100  0.25032300  1
  B  B28  1  0.09874800  0.13432100  0.16888600  1
  B  B29  1  0.40125200  0.13432100  0.66888600  1
  B  B30  1  0.90125200  0.86567900  0.83111400  1
  B  B31  1  0.59874800  0.86567900  0.33111400  1
  B  B32  1  0.04664600  0.90735100  0.18401500  1
  B  B33  1  0.45335400  0.90735100  0.68401500  1
  B  B34  1  0.95335400  0.09264900  0.81598500  1
  B  B35  1  0.54664600  0.09264900  0.31598500  1
  B  B36  1  0.93626500  0.95418700  0.19229100  1
  B  B37  1  0.56373500  0.95418700  0.69229100  1
  B  B38  1  0.06373500  0.04581300  0.80770900  1
  B  B39  1  0.43626500  0.04581300  0.30770900  1
  B  B40  1  0.73236300  0.17754700  0.10182100  1
  B  B41  1  0.76763700  0.17754700  0.60182100  1
  B  B42  1  0.26763700  0.82245300  0.89817900  1
  B  B43  1  0.23236300  0.82245300  0.39817900  1
  B  B44  1  0.72721100  0.37915000  0.13439000  1
  B  B45  1  0.77278900  0.37915000  0.63439000  1
  B  B46  1  0.27278900  0.62085000  0.86561000  1
  B  B47  1  0.22721100  0.62085000  0.36561000  1
  B  B48  1  0.64429400  0.34536200  0.06918100  1
  B  B49  1  0.85570600  0.34536200  0.56918100  1
  B  B50  1  0.35570600  0.65463800  0.93081900  1
  B  B51  1  0.14429400  0.65463800  0.43081900  1
  B  B52  1  0.67585500  0.22222500  0.00216400  1
  B  B53  1  0.82414500  0.22222500  0.50216400  1
  B  B54  1  0.32414500  0.77777500  0.99783600  1
  B  B55  1  0.17585500  0.77777500  0.49783600  1
  B  B56  1  0.82633800  0.31280700  0.09814000  1
  B  B57  1  0.67366200  0.31280700  0.59814000  1
  B  B58  1  0.17366200  0.68719300  0.90186000  1
  B  B59  1  0.32633800  0.68719300  0.40186000  1
  B  B60  1  0.79471200  0.56833500  0.06957800  1
  B  B61  1  0.70528800  0.56833500  0.56957800  1
  B  B62  1  0.20528800  0.43166500  0.93042200  1
  B  B63  1  0.29471200  0.43166500  0.43042200  1
  B  B64  1  0.68408100  0.58693800  0.04123400  1
  B  B65  1  0.81591900  0.58693800  0.54123400  1
  B  B66  1  0.31591900  0.41306200  0.95876600  1
  B  B67  1  0.18408100  0.41306200  0.45876600  1
  B  B68  1  0.64981200  0.48324800  0.95413100  1
  B  B69  1  0.85018800  0.48324800  0.45413100  1
  B  B70  1  0.35018800  0.51675200  0.04586900  1
  B  B71  1  0.14981200  0.51675200  0.54586900  1
  B  B72  1  0.73307500  0.38270500  0.91167600  1
  B  B73  1  0.76692500  0.38270500  0.41167600  1
  B  B74  1  0.26692500  0.61729500  0.08832400  1
  B  B75  1  0.23307500  0.61729500  0.58832400  1
  B  B76  1  0.78949600  0.21336000  0.00613000  1
  B  B77  1  0.71050400  0.21336000  0.50613000  1
  B  B78  1  0.21050400  0.78664000  0.99387000  1
  B  B79  1  0.28949600  0.78664000  0.49387000  1
  H  H80  1  0.92590000  0.46469900  0.23190400  1
  H  H81  1  0.57410000  0.46469900  0.73190400  1
  H  H82  1  0.07410000  0.53530100  0.76809600  1
  H  H83  1  0.42590000  0.53530100  0.26809600  1
  H  H84  1  0.04330300  0.48571900  0.09073200  1
  H  H85  1  0.45669700  0.48571900  0.59073200  1
  H  H86  1  0.95669700  0.51428100  0.90926800  1
  H  H87  1  0.54330300  0.51428100  0.40926800  1
  H  H88  1  0.00300500  0.16867400  0.03209500  1
  H  H89  1  0.49699500  0.16867400  0.53209500  1
  H  H90  1  0.99699500  0.83132600  0.96790500  1
  H  H91  1  0.50300500  0.83132600  0.46790500  1
  H  H92  1  0.83685800  0.03366400  0.30781300  1
  H  H93  1  0.66314200  0.03366400  0.80781300  1
  H  H94  1  0.16314200  0.96633600  0.69218700  1
  H  H95  1  0.33685800  0.96633600  0.19218700  1
  H  H96  1  0.95823100  0.95488100  0.33549600  1
  H  H97  1  0.54176900  0.95488100  0.83549600  1
  H  H98  1  0.04176900  0.04511900  0.66450400  1
  H  H99  1  0.45823100  0.04511900  0.16450400  1
  H  H100  1  0.98752600  0.11429700  0.40590900  1
  H  H101  1  0.51247400  0.11429700  0.90590900  1
  H  H102  1  0.01247400  0.88570300  0.59409100  1
  H  H103  1  0.48752600  0.88570300  0.09409100  1
  H  H104  1  0.12207600  0.35419900  0.26365200  1
  H  H105  1  0.37792400  0.35419900  0.76365200  1
  H  H106  1  0.87792400  0.64580100  0.73634800  1
  H  H107  1  0.62207600  0.64580100  0.23634800  1
  H  H108  1  0.07086400  0.08126000  0.31932400  1
  H  H109  1  0.42913600  0.08126000  0.81932400  1
  H  H110  1  0.92913600  0.91874000  0.68067600  1
  H  H111  1  0.57086400  0.91874000  0.18067600  1
  H  H112  1  0.16979100  0.16336900  0.14025900  1
  H  H113  1  0.33020900  0.16336900  0.64025900  1
  H  H114  1  0.83020900  0.83663100  0.85974100  1
  H  H115  1  0.66979100  0.83663100  0.35974100  1
  H  H116  1  0.10246100  0.95370900  0.23460100  1
  H  H117  1  0.39753900  0.95370900  0.73460100  1
  H  H118  1  0.89753900  0.04629100  0.76539900  1
  H  H119  1  0.60246100  0.04629100  0.26539900  1
  H  H120  1  0.07694000  0.76927800  0.17396400  1
  H  H121  1  0.42306000  0.76927800  0.67396400  1
  H  H122  1  0.92306000  0.23072200  0.82603600  1
  H  H123  1  0.57694000  0.23072200  0.32603600  1
  H  H124  1  0.88536500  0.84336500  0.18341700  1
  H  H125  1  0.61463500  0.84336500  0.68341700  1
  H  H126  1  0.11463500  0.15663500  0.81658300  1
  H  H127  1  0.38536500  0.15663500  0.31658300  1
  H  H128  1  0.99101400  0.83050600  0.25105400  1
  H  H129  1  0.50898600  0.83050600  0.75105400  1
  H  H130  1  0.00898600  0.16949400  0.74894600  1
  H  H131  1  0.49101400  0.16949400  0.24894600  1
  H  H132  1  0.71377500  0.34826000  0.20984000  1
  H  H133  1  0.78622500  0.34826000  0.70984000  1
  H  H134  1  0.28622500  0.65174000  0.79016000  1
  H  H135  1  0.21377500  0.65174000  0.29016000  1
  H  H136  1  0.73177000  0.00885000  0.15754400  1
  H  H137  1  0.76823000  0.00885000  0.65754400  1
  H  H138  1  0.26823000  0.99115000  0.84245600  1
  H  H139  1  0.23177000  0.99115000  0.34245600  1
  H  H140  1  0.57314800  0.31466100  0.09876900  1
  H  H141  1  0.92685200  0.31466100  0.59876900  1
  H  H142  1  0.42685200  0.68533900  0.90123100  1
  H  H143  1  0.07314800  0.68533900  0.40123100  1
  H  H144  1  0.63164300  0.09273300  0.99931100  1
  H  H145  1  0.86835700  0.09273300  0.49931100  1
  H  H146  1  0.36835700  0.90726700  0.00068900  1
  H  H147  1  0.13164300  0.90726700  0.50068900  1
  H  H148  1  0.84973200  0.48657100  0.03205500  1
  H  H149  1  0.65026800  0.48657100  0.53205500  1
  H  H150  1  0.15026800  0.51342900  0.96794500  1
  H  H151  1  0.34973200  0.51342900  0.46794500  1
  H  H152  1  0.83367800  0.68992100  0.08457100  1
  H  H153  1  0.66632200  0.68992100  0.58457100  1
  H  H154  1  0.16632200  0.31007900  0.91542900  1
  H  H155  1  0.33367800  0.31007900  0.41542900  1
  H  H156  1  0.64319200  0.72261800  0.04282500  1
  H  H157  1  0.85680800  0.72261800  0.54282500  1
  H  H158  1  0.35680800  0.27738200  0.95717500  1
  H  H159  1  0.14319200  0.27738200  0.45717500  1
  H  H160  1  0.75242400  0.67323500  0.99365800  1
  H  H161  1  0.74757600  0.67323500  0.49365800  1
  H  H162  1  0.24757600  0.32676500  0.00634200  1
  H  H163  1  0.25242400  0.32676500  0.50634200  1
  H  H164  1  0.58954000  0.56069400  0.90893000  1
  H  H165  1  0.91046000  0.56069400  0.40893000  1
  H  H166  1  0.41046000  0.43930600  0.09107000  1
  H  H167  1  0.08954000  0.43930600  0.59107000  1
  H  H168  1  0.71679900  0.56921900  0.90411600  1
  H  H169  1  0.78320100  0.56921900  0.40411600  1
  H  H170  1  0.28320100  0.43078100  0.09588400  1
  H  H171  1  0.21679900  0.43078100  0.59588400  1
  H  H172  1  0.73906100  0.39694500  0.83781500  1
  H  H173  1  0.76093900  0.39694500  0.33781500  1
  H  H174  1  0.26093900  0.60305500  0.16218500  1
  H  H175  1  0.23906100  0.60305500  0.66218500  1
  H  H176  1  0.83424800  0.08912400  0.99933800  1
  H  H177  1  0.66575200  0.08912400  0.49933800  1
  H  H178  1  0.16575200  0.91087600  0.00066200  1
  H  H179  1  0.33424800  0.91087600  0.50066200  1
  H  H180  1  0.81309900  0.38509800  0.94040100  1
  H  H181  1  0.68690100  0.38509800  0.44040100  1
  H  H182  1  0.18690100  0.61490200  0.05959900  1
  H  H183  1  0.31309900  0.61490200  0.55959900  1
