# generated using pymatgen
data_Na5P5(H9O7)2
_symmetry_space_group_name_H-M   'P 1'
_cell_length_a   13.71575600
_cell_length_b   11.21269800
_cell_length_c   15.00156375
_cell_angle_alpha   57.52069447
_cell_angle_beta   90.00000000
_cell_angle_gamma   90.00000000
_symmetry_Int_Tables_number   1
_chemical_formula_structural   Na5P5(H9O7)2
_chemical_formula_sum   'Na20 P20 H72 O56'
_cell_volume   1946.23595385
_cell_formula_units_Z   4
loop_
 _symmetry_equiv_pos_site_id
 _symmetry_equiv_pos_as_xyz
  1  'x, y, z'
loop_
 _atom_site_type_symbol
 _atom_site_label
 _atom_site_symmetry_multiplicity
 _atom_site_fract_x
 _atom_site_fract_y
 _atom_site_fract_z
 _atom_site_occupancy
  Na  Na0  1  0.23985800  0.73745400  0.49731800  1
  Na  Na1  1  0.26014200  0.73745400  0.99731800  1
  Na  Na2  1  0.76014200  0.26254600  0.50268200  1
  Na  Na3  1  0.73985800  0.26254600  0.00268200  1
  Na  Na4  1  0.43078400  0.76433600  0.35549200  1
  Na  Na5  1  0.06921600  0.76433600  0.85549200  1
  Na  Na6  1  0.56921600  0.23566400  0.64450800  1
  Na  Na7  1  0.93078400  0.23566400  0.14450800  1
  Na  Na8  1  0.93671200  0.27146000  0.35723500  1
  Na  Na9  1  0.56328800  0.27146000  0.85723500  1
  Na  Na10  1  0.06328800  0.72854000  0.64276500  1
  Na  Na11  1  0.43671200  0.72854000  0.14276500  1
  Na  Na12  1  0.17446900  0.01940100  0.54277100  1
  Na  Na13  1  0.32553100  0.01940100  0.04277100  1
  Na  Na14  1  0.82553100  0.98059900  0.45722900  1
  Na  Na15  1  0.67446900  0.98059900  0.95722900  1
  Na  Na16  1  0.67699400  0.53144100  0.54141500  1
  Na  Na17  1  0.82300600  0.53144100  0.04141500  1
  Na  Na18  1  0.32300600  0.46855900  0.45858500  1
  Na  Na19  1  0.17699400  0.46855900  0.95858500  1
  P  P20  1  0.29705600  0.74305600  0.74712200  1
  P  P21  1  0.20294400  0.74305600  0.24712200  1
  P  P22  1  0.70294400  0.25694400  0.25287800  1
  P  P23  1  0.79705600  0.25694400  0.75287800  1
  P  P24  1  0.39085900  0.01503700  0.41959500  1
  P  P25  1  0.10914100  0.01503700  0.91959500  1
  P  P26  1  0.60914100  0.98496300  0.58040500  1
  P  P27  1  0.89085900  0.98496300  0.08040500  1
  P  P28  1  0.89887700  0.57935400  0.38131100  1
  P  P29  1  0.60112300  0.57935400  0.88131100  1
  P  P30  1  0.10112300  0.42064600  0.61868900  1
  P  P31  1  0.39887700  0.42064600  0.11868900  1
  P  P32  1  0.44459500  0.52905000  0.63864400  1
  P  P33  1  0.05540500  0.52905000  0.13864400  1
  P  P34  1  0.55540500  0.47095000  0.36135600  1
  P  P35  1  0.94459500  0.47095000  0.86135600  1
  P  P36  1  0.95082100  0.02712800  0.64215800  1
  P  P37  1  0.54917900  0.02712800  0.14215800  1
  P  P38  1  0.04917900  0.97287200  0.35784200  1
  P  P39  1  0.45082100  0.97287200  0.85784200  1
  H  H40  1  0.36216800  0.85708900  0.71882200  1
  H  H41  1  0.13783200  0.85708900  0.21882200  1
  H  H42  1  0.63783200  0.14291100  0.28117800  1
  H  H43  1  0.86216800  0.14291100  0.78117800  1
  H  H44  1  0.86314600  0.36950200  0.72576900  1
  H  H45  1  0.63685400  0.36950200  0.22576900  1
  H  H46  1  0.13685400  0.63049800  0.27423100  1
  H  H47  1  0.36314600  0.63049800  0.77423100  1
  H  H48  1  0.47209800  0.09184900  0.35469900  1
  H  H49  1  0.02790200  0.09184900  0.85469900  1
  H  H50  1  0.52790200  0.90815100  0.64530100  1
  H  H51  1  0.97209800  0.90815100  0.14530100  1
  H  H52  1  0.91175600  0.69772600  0.27635800  1
  H  H53  1  0.58824400  0.69772600  0.77635800  1
  H  H54  1  0.08824400  0.30227400  0.72364200  1
  H  H55  1  0.41175600  0.30227400  0.22364200  1
  H  H56  1  0.43566400  0.90763100  0.51489000  1
  H  H57  1  0.06433600  0.90763100  0.01489000  1
  H  H58  1  0.56433600  0.09236900  0.48511000  1
  H  H59  1  0.93566400  0.09236900  0.98511000  1
  H  H60  1  0.99610900  0.55308400  0.41997200  1
  H  H61  1  0.50389100  0.55308400  0.91997200  1
  H  H62  1  0.00389100  0.44691600  0.58002800  1
  H  H63  1  0.49610900  0.44691600  0.08002800  1
  H  H64  1  0.37697700  0.46203400  0.72390300  1
  H  H65  1  0.12302300  0.46203400  0.22390300  1
  H  H66  1  0.62302300  0.53796600  0.27609700  1
  H  H67  1  0.87697700  0.53796600  0.77609700  1
  H  H68  1  0.88195200  0.96667400  0.72612200  1
  H  H69  1  0.61804800  0.96667400  0.22612200  1
  H  H70  1  0.11804800  0.03332600  0.27387800  1
  H  H71  1  0.38195200  0.03332600  0.77387800  1
  H  H72  1  0.48066000  0.64430700  0.64439600  1
  H  H73  1  0.01934000  0.64430700  0.14439600  1
  H  H74  1  0.51934000  0.35569300  0.35560400  1
  H  H75  1  0.98066000  0.35569300  0.85560400  1
  H  H76  1  0.99570100  0.13706300  0.64937700  1
  H  H77  1  0.50429900  0.13706300  0.14937700  1
  H  H78  1  0.00429900  0.86293700  0.35062300  1
  H  H79  1  0.49570100  0.86293700  0.85062300  1
  H  H80  1  0.60137800  0.81522000  0.47996000  1
  H  H81  1  0.89862200  0.81522000  0.97996000  1
  H  H82  1  0.39862200  0.18478000  0.52004000  1
  H  H83  1  0.10137800  0.18478000  0.02004000  1
  H  H84  1  0.10321500  0.30286800  0.47989800  1
  H  H85  1  0.39678500  0.30286800  0.97989800  1
  H  H86  1  0.89678500  0.69713200  0.52010200  1
  H  H87  1  0.60321500  0.69713200  0.02010200  1
  H  H88  1  0.64682800  0.82901600  0.38230000  1
  H  H89  1  0.85317200  0.82901600  0.88230000  1
  H  H90  1  0.35317200  0.17098400  0.61770000  1
  H  H91  1  0.14682800  0.17098400  0.11770000  1
  H  H92  1  0.14780500  0.31892500  0.38065200  1
  H  H93  1  0.35219500  0.31892500  0.88065200  1
  H  H94  1  0.85219500  0.68107500  0.61934800  1
  H  H95  1  0.64780500  0.68107500  0.11934800  1
  H  H96  1  0.20554700  0.03892400  0.73530000  1
  H  H97  1  0.29445300  0.03892400  0.23530000  1
  H  H98  1  0.79445300  0.96107600  0.26470000  1
  H  H99  1  0.70554700  0.96107600  0.76470000  1
  H  H100  1  0.69123300  0.54590400  0.73118000  1
  H  H101  1  0.80876700  0.54590400  0.23118000  1
  H  H102  1  0.30876700  0.45409600  0.26882000  1
  H  H103  1  0.19123300  0.45409600  0.76882000  1
  H  H104  1  0.19627000  0.19085400  0.63098800  1
  H  H105  1  0.30373000  0.19085400  0.13098800  1
  H  H106  1  0.80373000  0.80914600  0.36901200  1
  H  H107  1  0.69627000  0.80914600  0.86901200  1
  H  H108  1  0.69250200  0.70397300  0.63311600  1
  H  H109  1  0.80749800  0.70397300  0.13311600  1
  H  H110  1  0.30749800  0.29602700  0.36688400  1
  H  H111  1  0.19250200  0.29602700  0.86688400  1
  O  O112  1  0.23994000  0.77814400  0.64889400  1
  O  O113  1  0.26006000  0.77814400  0.14889400  1
  O  O114  1  0.76006000  0.22185600  0.35110600  1
  O  O115  1  0.73994000  0.22185600  0.85110600  1
  O  O116  1  0.74175400  0.29321000  0.65348100  1
  O  O117  1  0.75824600  0.29321000  0.15348100  1
  O  O118  1  0.25824600  0.70679000  0.34651900  1
  O  O119  1  0.24175400  0.70679000  0.84651900  1
  O  O120  1  0.33905700  0.94261100  0.37158900  1
  O  O121  1  0.16094300  0.94261100  0.87158900  1
  O  O122  1  0.66094300  0.05738900  0.62841100  1
  O  O123  1  0.83905700  0.05738900  0.12841100  1
  O  O124  1  0.86386000  0.45467900  0.37576100  1
  O  O125  1  0.63614000  0.45467900  0.87576100  1
  O  O126  1  0.13614000  0.54532100  0.62423900  1
  O  O127  1  0.36386000  0.54532100  0.12423900  1
  O  O128  1  0.33393400  0.11213800  0.44315200  1
  O  O129  1  0.16606600  0.11213800  0.94315200  1
  O  O130  1  0.66606600  0.88786200  0.55684800  1
  O  O131  1  0.83393400  0.88786200  0.05684800  1
  O  O132  1  0.83897700  0.62738300  0.44220500  1
  O  O133  1  0.66102300  0.62738300  0.94220500  1
  O  O134  1  0.16102300  0.37261700  0.55779500  1
  O  O135  1  0.33897700  0.37261700  0.05779500  1
  O  O136  1  0.38621700  0.58993800  0.53700200  1
  O  O137  1  0.11378300  0.58993800  0.03700200  1
  O  O138  1  0.61378300  0.41006200  0.46299800  1
  O  O139  1  0.88621700  0.41006200  0.96299800  1
  O  O140  1  0.89366700  0.09584200  0.53944600  1
  O  O141  1  0.60633300  0.09584200  0.03944600  1
  O  O142  1  0.10633300  0.90415800  0.46055400  1
  O  O143  1  0.39366700  0.90415800  0.96055400  1
  O  O144  1  0.52905500  0.42866800  0.66204500  1
  O  O145  1  0.97094500  0.42866800  0.16204500  1
  O  O146  1  0.47094500  0.57133200  0.33795500  1
  O  O147  1  0.02905500  0.57133200  0.83795500  1
  O  O148  1  0.02866000  0.91716100  0.66629900  1
  O  O149  1  0.47134000  0.91716100  0.16629900  1
  O  O150  1  0.97134000  0.08283900  0.33370100  1
  O  O151  1  0.52866000  0.08283900  0.83370100  1
  O  O152  1  0.59220400  0.78058900  0.43226700  1
  O  O153  1  0.90779600  0.78058900  0.93226700  1
  O  O154  1  0.40779600  0.21941100  0.56773300  1
  O  O155  1  0.09220400  0.21941100  0.06773300  1
  O  O156  1  0.09586300  0.26656900  0.43317900  1
  O  O157  1  0.40413700  0.26656900  0.93317900  1
  O  O158  1  0.90413700  0.73343100  0.56682100  1
  O  O159  1  0.59586300  0.73343100  0.06682100  1
  O  O160  1  0.22625700  0.09638000  0.66014000  1
  O  O161  1  0.27374300  0.09638000  0.16014000  1
  O  O162  1  0.77374300  0.90362000  0.33986000  1
  O  O163  1  0.72625700  0.90362000  0.83986000  1
  O  O164  1  0.71847200  0.60813300  0.65946700  1
  O  O165  1  0.78152800  0.60813300  0.15946700  1
  O  O166  1  0.28152800  0.39186700  0.34053300  1
  O  O167  1  0.21847200  0.39186700  0.84053300  1
