# generated using pymatgen
data_MgB2H6O7
_symmetry_space_group_name_H-M   'P 1'
_cell_length_a   7.69188600
_cell_length_b   7.69188600
_cell_length_c   8.22368500
_cell_angle_alpha   90.00000000
_cell_angle_beta   90.00000000
_cell_angle_gamma   90.00000000
_symmetry_Int_Tables_number   1
_chemical_formula_structural   MgB2H6O7
_chemical_formula_sum   'Mg4 B8 H24 O28'
_cell_volume   486.55522958
_cell_formula_units_Z   4
loop_
 _symmetry_equiv_pos_site_id
 _symmetry_equiv_pos_as_xyz
  1  'x, y, z'
loop_
 _atom_site_type_symbol
 _atom_site_label
 _atom_site_symmetry_multiplicity
 _atom_site_fract_x
 _atom_site_fract_y
 _atom_site_fract_z
 _atom_site_occupancy
  Mg  Mg0  1  0.75000000  0.25000000  0.75000000  1
  Mg  Mg1  1  0.75000000  0.75000000  0.25000000  1
  Mg  Mg2  1  0.25000000  0.25000000  0.25000000  1
  Mg  Mg3  1  0.25000000  0.75000000  0.75000000  1
  B  B4  1  0.61378200  0.12238200  0.10599200  1
  B  B5  1  0.62238200  0.88621800  0.60599200  1
  B  B6  1  0.87761800  0.61378200  0.89400800  1
  B  B7  1  0.88621800  0.37761800  0.39400800  1
  B  B8  1  0.11378200  0.62238200  0.39400800  1
  B  B9  1  0.12238200  0.38621800  0.89400800  1
  B  B10  1  0.37761800  0.11378200  0.60599200  1
  B  B11  1  0.38621800  0.87761800  0.10599200  1
  H  H12  1  0.53875700  0.13679000  0.34736500  1
  H  H13  1  0.60390000  0.63989400  0.68565300  1
  H  H14  1  0.63989400  0.39610000  0.31434700  1
  H  H15  1  0.63523800  0.69724000  0.95625000  1
  H  H16  1  0.63679000  0.96124300  0.84736500  1
  H  H17  1  0.69724000  0.36476200  0.04375000  1
  H  H18  1  0.80276000  0.13523800  0.45625000  1
  H  H19  1  0.86321000  0.53875700  0.65263500  1
  H  H20  1  0.86010600  0.10390000  0.18565300  1
  H  H21  1  0.86476200  0.80276000  0.54375000  1
  H  H22  1  0.89610000  0.86010600  0.81434700  1
  H  H23  1  0.96124300  0.36321000  0.15263500  1
  H  H24  1  0.03875700  0.63679000  0.15263500  1
  H  H25  1  0.10390000  0.13989400  0.81434700  1
  H  H26  1  0.13523800  0.19724000  0.54375000  1
  H  H27  1  0.13989400  0.89610000  0.18565300  1
  H  H28  1  0.13679000  0.46124300  0.65263500  1
  H  H29  1  0.19724000  0.86476200  0.45625000  1
  H  H30  1  0.30276000  0.63523800  0.04375000  1
  H  H31  1  0.36321000  0.03875700  0.84736500  1
  H  H32  1  0.36476200  0.30276000  0.95625000  1
  H  H33  1  0.36010600  0.60390000  0.31434700  1
  H  H34  1  0.39610000  0.36010600  0.68565300  1
  H  H35  1  0.46124300  0.86321000  0.34736500  1
  O  O36  1  0.50000000  0.00000000  0.01658500  1
  O  O37  1  0.50000000  0.00000000  0.51658500  1
  O  O38  1  0.52461500  0.73828800  0.66635600  1
  O  O39  1  0.52048400  0.20808900  0.24759000  1
  O  O40  1  0.65883100  0.26447700  0.99051300  1
  O  O41  1  0.70808900  0.97951600  0.74759000  1
  O  O42  1  0.73828800  0.47538500  0.33364400  1
  O  O43  1  0.73552300  0.65883100  0.00948700  1
  O  O44  1  0.76447700  0.84116900  0.49051300  1
  O  O45  1  0.76171200  0.02461500  0.16635600  1
  O  O46  1  0.79191100  0.52048400  0.75241000  1
  O  O47  1  0.84116900  0.23552300  0.50948700  1
  O  O48  1  0.97538500  0.76171200  0.83364400  1
  O  O49  1  0.97951600  0.29191100  0.25241000  1
  O  O50  1  0.00000000  0.50000000  0.48341500  1
  O  O51  1  0.00000000  0.50000000  0.98341500  1
  O  O52  1  0.02048400  0.70808900  0.25241000  1
  O  O53  1  0.02461500  0.23828800  0.83364400  1
  O  O54  1  0.15883100  0.76447700  0.50948700  1
  O  O55  1  0.20808900  0.47951600  0.75241000  1
  O  O56  1  0.23828800  0.97538500  0.16635600  1
  O  O57  1  0.23552300  0.15883100  0.49051300  1
  O  O58  1  0.26447700  0.34116900  0.00948700  1
  O  O59  1  0.26171200  0.52461500  0.33364400  1
  O  O60  1  0.29191100  0.02048400  0.74759000  1
  O  O61  1  0.34116900  0.73552300  0.99051300  1
  O  O62  1  0.47951600  0.79191100  0.24759000  1
  O  O63  1  0.47538500  0.26171200  0.66635600  1
