# generated using pymatgen
data_B9H11
_symmetry_space_group_name_H-M   'P 1'
_cell_length_a   13.40866400
_cell_length_b   9.30113600
_cell_length_c   12.74658894
_cell_angle_alpha   70.32452293
_cell_angle_beta   90.00000000
_cell_angle_gamma   90.00000000
_symmetry_Int_Tables_number   1
_chemical_formula_structural   B9H11
_chemical_formula_sum   'B72 H88'
_cell_volume   1496.88601407
_cell_formula_units_Z   8
loop_
 _symmetry_equiv_pos_site_id
 _symmetry_equiv_pos_as_xyz
  1  'x, y, z'
loop_
 _atom_site_type_symbol
 _atom_site_label
 _atom_site_symmetry_multiplicity
 _atom_site_fract_x
 _atom_site_fract_y
 _atom_site_fract_z
 _atom_site_occupancy
  B  B0  1  0.72777500  0.45486600  0.73334500  1
  B  B1  1  0.22777500  0.54513400  0.76665500  1
  B  B2  1  0.27222500  0.54513400  0.26665500  1
  B  B3  1  0.77222500  0.45486600  0.23334500  1
  B  B4  1  0.77885200  0.62034500  0.63169700  1
  B  B5  1  0.27885200  0.37965500  0.86830300  1
  B  B6  1  0.22114800  0.37965500  0.36830300  1
  B  B7  1  0.72114800  0.62034500  0.13169700  1
  B  B8  1  0.85019500  0.45055000  0.68035700  1
  B  B9  1  0.35019500  0.54945000  0.81964300  1
  B  B10  1  0.14980500  0.54945000  0.31964300  1
  B  B11  1  0.64980500  0.45055000  0.18035700  1
  B  B12  1  0.78030700  0.28155000  0.72862900  1
  B  B13  1  0.28030700  0.71845000  0.77137100  1
  B  B14  1  0.21969300  0.71845000  0.27137100  1
  B  B15  1  0.71969300  0.28155000  0.22862900  1
  B  B16  1  0.65353600  0.56268900  0.62271100  1
  B  B17  1  0.15353600  0.43731100  0.87728900  1
  B  B18  1  0.34646400  0.43731100  0.37728900  1
  B  B19  1  0.84646400  0.56268900  0.12271100  1
  B  B20  1  0.72878300  0.64441100  0.50275800  1
  B  B21  1  0.22878300  0.35558900  0.99724200  1
  B  B22  1  0.27121700  0.35558900  0.49724200  1
  B  B23  1  0.77121700  0.64441100  0.00275800  1
  B  B24  1  0.84648300  0.55009200  0.53663200  1
  B  B25  1  0.34648300  0.44990800  0.96336800  1
  B  B26  1  0.15351700  0.44990800  0.46336800  1
  B  B27  1  0.65351700  0.55009200  0.03663200  1
  B  B28  1  0.85092000  0.32769600  0.60198900  1
  B  B29  1  0.35092000  0.67230400  0.89801100  1
  B  B30  1  0.14908000  0.67230400  0.39801100  1
  B  B31  1  0.64908000  0.32769600  0.10198900  1
  B  B32  1  0.73189100  0.23524800  0.61834900  1
  B  B33  1  0.23189100  0.76475200  0.88165100  1
  B  B34  1  0.26810900  0.76475200  0.38165100  1
  B  B35  1  0.76810900  0.23524800  0.11834900  1
  B  B36  1  0.65095900  0.33610300  0.68442500  1
  B  B37  1  0.15095900  0.66389700  0.81557500  1
  B  B38  1  0.34904100  0.66389700  0.31557500  1
  B  B39  1  0.84904100  0.33610300  0.18442500  1
  B  B40  1  0.52653300  0.27600800  0.67382700  1
  B  B41  1  0.02653300  0.72399200  0.82617300  1
  B  B42  1  0.47346700  0.72399200  0.32617300  1
  B  B43  1  0.97346700  0.27600800  0.17382700  1
  B  B44  1  0.49568300  0.08649700  0.76147600  1
  B  B45  1  0.99568300  0.91350300  0.73852400  1
  B  B46  1  0.50431700  0.91350300  0.23852400  1
  B  B47  1  0.00431700  0.08649700  0.26147600  1
  B  B48  1  0.53287900  0.12049800  0.62207900  1
  B  B49  1  0.03287900  0.87950200  0.87792100  1
  B  B50  1  0.46712100  0.87950200  0.37792100  1
  B  B51  1  0.96712100  0.12049800  0.12207900  1
  B  B52  1  0.61219000  0.27873800  0.56641800  1
  B  B53  1  0.11219000  0.72126200  0.93358200  1
  B  B54  1  0.38781000  0.72126200  0.43358200  1
  B  B55  1  0.88781000  0.27873800  0.06641800  1
  B  B56  1  0.56954800  0.20934100  0.81103600  1
  B  B57  1  0.06954800  0.79065900  0.68896400  1
  B  B58  1  0.43045200  0.79065900  0.18896400  1
  B  B59  1  0.93045200  0.20934100  0.31103600  1
  B  B60  1  0.59102900  0.01030800  0.85258900  1
  B  B61  1  0.09102900  0.98969200  0.64741100  1
  B  B62  1  0.40897100  0.98969200  0.14741100  1
  B  B63  1  0.90897100  0.01030800  0.35258900  1
  B  B64  1  0.58415600  0.96378300  0.72757300  1
  B  B65  1  0.08415600  0.03621700  0.77242700  1
  B  B66  1  0.41584400  0.03621700  0.27242700  1
  B  B67  1  0.91584400  0.96378300  0.22757300  1
  B  B68  1  0.65779100  0.08745800  0.59607800  1
  B  B69  1  0.15779100  0.91254200  0.90392200  1
  B  B70  1  0.34220900  0.91254200  0.40392200  1
  B  B71  1  0.84220900  0.08745800  0.09607800  1
  H  H72  1  0.70785200  0.46335600  0.82248700  1
  H  H73  1  0.20785200  0.53664400  0.67751300  1
  H  H74  1  0.29214800  0.53664400  0.17751300  1
  H  H75  1  0.79214800  0.46335600  0.32248700  1
  H  H76  1  0.80134000  0.72615000  0.65978800  1
  H  H77  1  0.30134000  0.27385000  0.84021200  1
  H  H78  1  0.19866000  0.27385000  0.34021200  1
  H  H79  1  0.69866000  0.72615000  0.15978800  1
  H  H80  1  0.92762100  0.45264900  0.72612100  1
  H  H81  1  0.42762100  0.54735100  0.77387900  1
  H  H82  1  0.07237900  0.54735100  0.27387900  1
  H  H83  1  0.57237900  0.45264900  0.22612100  1
  H  H84  1  0.80433200  0.18472300  0.81320000  1
  H  H85  1  0.30433200  0.81527700  0.68680000  1
  H  H86  1  0.19566800  0.81527700  0.18680000  1
  H  H87  1  0.69566800  0.18472300  0.31320000  1
  H  H88  1  0.58048600  0.62624800  0.63791500  1
  H  H89  1  0.08048600  0.37375200  0.86208500  1
  H  H90  1  0.41951400  0.37375200  0.36208500  1
  H  H91  1  0.91951400  0.62624800  0.13791500  1
  H  H92  1  0.71228700  0.75736600  0.42579900  1
  H  H93  1  0.21228700  0.24263400  0.07420100  1
  H  H94  1  0.28771300  0.24263400  0.57420100  1
  H  H95  1  0.78771300  0.75736600  0.92579900  1
  H  H96  1  0.91803600  0.60611700  0.48293800  1
  H  H97  1  0.41803600  0.39388300  0.01706200  1
  H  H98  1  0.08196400  0.39388300  0.51706200  1
  H  H99  1  0.58196400  0.60611700  0.98293800  1
  H  H100  1  0.92545500  0.26368500  0.59350300  1
  H  H101  1  0.42545500  0.73631500  0.90649700  1
  H  H102  1  0.07454500  0.73631500  0.40649700  1
  H  H103  1  0.57454500  0.26368500  0.09350300  1
  H  H104  1  0.78848800  0.31199200  0.52721900  1
  H  H105  1  0.28848800  0.68800800  0.97278100  1
  H  H106  1  0.21151200  0.68800800  0.47278100  1
  H  H107  1  0.71151200  0.31199200  0.02721900  1
  H  H108  1  0.73907900  0.07944000  0.65524000  1
  H  H109  1  0.23907900  0.92056000  0.84476000  1
  H  H110  1  0.26092100  0.92056000  0.34476000  1
  H  H111  1  0.76092100  0.07944000  0.15524000  1
  H  H112  1  0.46292900  0.37124100  0.65313400  1
  H  H113  1  0.96292900  0.62875900  0.84686600  1
  H  H114  1  0.53707100  0.62875900  0.34686600  1
  H  H115  1  0.03707100  0.37124100  0.15313400  1
  H  H116  1  0.41153000  0.05126300  0.78966000  1
  H  H117  1  0.91153000  0.94873700  0.71034000  1
  H  H118  1  0.58847000  0.94873700  0.21034000  1
  H  H119  1  0.08847000  0.05126300  0.28966000  1
  H  H120  1  0.47648600  0.09050600  0.55977900  1
  H  H121  1  0.97648600  0.90949400  0.94022100  1
  H  H122  1  0.52351400  0.90949400  0.44022100  1
  H  H123  1  0.02351400  0.09050600  0.05977900  1
  H  H124  1  0.60010700  0.36532700  0.47420300  1
  H  H125  1  0.10010700  0.63467300  0.02579700  1
  H  H126  1  0.39989300  0.63467300  0.52579700  1
  H  H127  1  0.89989300  0.36532700  0.97420300  1
  H  H128  1  0.54489900  0.26474400  0.87886400  1
  H  H129  1  0.04489900  0.73525600  0.62113600  1
  H  H130  1  0.45510100  0.73525600  0.12113600  1
  H  H131  1  0.95510100  0.26474400  0.37886400  1
  H  H132  1  0.58802900  0.92271300  0.94539500  1
  H  H133  1  0.08802900  0.07728700  0.55460500  1
  H  H134  1  0.41197100  0.07728700  0.05460500  1
  H  H135  1  0.91197100  0.92271300  0.44539500  1
  H  H136  1  0.56888100  0.83450500  0.73460100  1
  H  H137  1  0.06888100  0.16549500  0.76539900  1
  H  H138  1  0.43111900  0.16549500  0.26539900  1
  H  H139  1  0.93111900  0.83450500  0.23460100  1
  H  H140  1  0.67809900  0.03449700  0.52598100  1
  H  H141  1  0.17809900  0.96550300  0.97401900  1
  H  H142  1  0.32190100  0.96550300  0.47401900  1
  H  H143  1  0.82190100  0.03449700  0.02598100  1
  H  H144  1  0.64579900  0.56071700  0.51929100  1
  H  H145  1  0.14579900  0.43928300  0.98070900  1
  H  H146  1  0.35420100  0.43928300  0.48070900  1
  H  H147  1  0.85420100  0.56071700  0.01929100  1
  H  H148  1  0.77792900  0.54985900  0.46136100  1
  H  H149  1  0.27792900  0.45014100  0.03863900  1
  H  H150  1  0.22207100  0.45014100  0.53863900  1
  H  H151  1  0.72207100  0.54985900  0.96136100  1
  H  H152  1  0.64918100  0.12450400  0.85465800  1
  H  H153  1  0.14918100  0.87549600  0.64534200  1
  H  H154  1  0.35081900  0.87549600  0.14534200  1
  H  H155  1  0.85081900  0.12450400  0.35465800  1
  H  H156  1  0.65918900  0.95915900  0.79696300  1
  H  H157  1  0.15918900  0.04084100  0.70303700  1
  H  H158  1  0.34081100  0.04084100  0.20303700  1
  H  H159  1  0.84081100  0.95915900  0.29696300  1
