# generated using pymatgen
data_PH6N3O
_symmetry_space_group_name_H-M   'P 1'
_cell_length_a   8.91969800
_cell_length_b   5.44831400
_cell_length_c   8.56524321
_cell_angle_alpha   85.55261967
_cell_angle_beta   90.00000000
_cell_angle_gamma   90.00000000
_symmetry_Int_Tables_number   1
_chemical_formula_structural   PH6N3O
_chemical_formula_sum   'P4 H24 N12 O4'
_cell_volume   414.99449155
_cell_formula_units_Z   4
loop_
 _symmetry_equiv_pos_site_id
 _symmetry_equiv_pos_as_xyz
  1  'x, y, z'
loop_
 _atom_site_type_symbol
 _atom_site_label
 _atom_site_symmetry_multiplicity
 _atom_site_fract_x
 _atom_site_fract_y
 _atom_site_fract_z
 _atom_site_occupancy
  P  P0  1  0.52553300  0.33389400  0.25161700  1
  P  P1  1  0.02553300  0.16610600  0.74838300  1
  P  P2  1  0.47446700  0.66610600  0.74838300  1
  P  P3  1  0.97446700  0.83389400  0.25161700  1
  H  H4  1  0.73384900  0.43110800  0.10553500  1
  H  H5  1  0.23384900  0.06889200  0.89446500  1
  H  H6  1  0.26615100  0.56889200  0.89446500  1
  H  H7  1  0.76615100  0.93110800  0.10553500  1
  H  H8  1  0.60347300  0.29876000  0.99746900  1
  H  H9  1  0.10347300  0.20124000  0.00253100  1
  H  H10  1  0.39652700  0.70124000  0.00253100  1
  H  H11  1  0.89652700  0.79876000  0.99746900  1
  H  H12  1  0.70893900  0.13967400  0.40140000  1
  H  H13  1  0.20893900  0.36032600  0.59860000  1
  H  H14  1  0.29106100  0.86032600  0.59860000  1
  H  H15  1  0.79106100  0.63967400  0.40140000  1
  H  H16  1  0.60425900  0.32299500  0.51122500  1
  H  H17  1  0.10425900  0.17700500  0.48877500  1
  H  H18  1  0.39574100  0.67700500  0.48877500  1
  H  H19  1  0.89574100  0.82299500  0.51122500  1
  H  H20  1  0.29577100  0.13272500  0.25401500  1
  H  H21  1  0.79577100  0.36727500  0.74598500  1
  H  H22  1  0.70422900  0.86727500  0.74598500  1
  H  H23  1  0.20422900  0.63272500  0.25401500  1
  H  H24  1  0.44058200  0.93173900  0.23342700  1
  H  H25  1  0.94058200  0.56826100  0.76657300  1
  H  H26  1  0.55941800  0.06826100  0.76657300  1
  H  H27  1  0.05941800  0.43173900  0.23342700  1
  N  N28  1  0.64720800  0.30733600  0.10704900  1
  N  N29  1  0.14720800  0.19266400  0.89295100  1
  N  N30  1  0.35279200  0.69266400  0.89295100  1
  N  N31  1  0.85279200  0.80733600  0.10704900  1
  N  N32  1  0.64487200  0.29627400  0.40157500  1
  N  N33  1  0.14487200  0.20372600  0.59842500  1
  N  N34  1  0.35512800  0.70372600  0.59842500  1
  N  N35  1  0.85512800  0.79627400  0.40157500  1
  N  N36  1  0.40594300  0.11144700  0.22436900  1
  N  N37  1  0.90594300  0.38855300  0.77563100  1
  N  N38  1  0.59405700  0.88855300  0.77563100  1
  N  N39  1  0.09405700  0.61144700  0.22436900  1
  O  O40  1  0.43856400  0.57016100  0.26329600  1
  O  O41  1  0.93856400  0.92983900  0.73670400  1
  O  O42  1  0.56143600  0.42983900  0.73670400  1
  O  O43  1  0.06143600  0.07016100  0.26329600  1
