# generated using pymatgen
data_Na2GeH12S2O7
_symmetry_space_group_name_H-M   'P 1'
_cell_length_a   10.80787600
_cell_length_b   13.93373500
_cell_length_c   14.13237900
_cell_angle_alpha   90.00000000
_cell_angle_beta   90.00000000
_cell_angle_gamma   90.00000000
_symmetry_Int_Tables_number   1
_chemical_formula_structural   Na2GeH12S2O7
_chemical_formula_sum   'Na16 Ge8 H96 S16 O56'
_cell_volume   2128.25261509
_cell_formula_units_Z   8
loop_
 _symmetry_equiv_pos_site_id
 _symmetry_equiv_pos_as_xyz
  1  'x, y, z'
loop_
 _atom_site_type_symbol
 _atom_site_label
 _atom_site_symmetry_multiplicity
 _atom_site_fract_x
 _atom_site_fract_y
 _atom_site_fract_z
 _atom_site_occupancy
  Na  Na0  1  0.00000000  0.50000000  0.50000000  1
  Na  Na1  1  0.50000000  0.00000000  0.00000000  1
  Na  Na2  1  0.50000000  0.00000000  0.50000000  1
  Na  Na3  1  0.00000000  0.50000000  0.00000000  1
  Na  Na4  1  0.49915800  0.51363700  0.87659000  1
  Na  Na5  1  0.00084200  0.98636300  0.37659000  1
  Na  Na6  1  0.99915800  0.98636300  0.12341000  1
  Na  Na7  1  0.50084200  0.51363700  0.62341000  1
  Na  Na8  1  0.50084200  0.48636300  0.12341000  1
  Na  Na9  1  0.99915800  0.01363700  0.62341000  1
  Na  Na10  1  0.00084200  0.01363700  0.87659000  1
  Na  Na11  1  0.49915800  0.48636300  0.37659000  1
  Na  Na12  1  0.00000000  0.44827400  0.75000000  1
  Na  Na13  1  0.50000000  0.05172600  0.25000000  1
  Na  Na14  1  0.00000000  0.55172600  0.25000000  1
  Na  Na15  1  0.50000000  0.94827400  0.75000000  1
  Ge  Ge16  1  0.18837500  0.64797600  0.85584900  1
  Ge  Ge17  1  0.31162500  0.85202400  0.35584900  1
  Ge  Ge18  1  0.68837500  0.85202400  0.14415100  1
  Ge  Ge19  1  0.81162500  0.64797600  0.64415100  1
  Ge  Ge20  1  0.81162500  0.35202400  0.14415100  1
  Ge  Ge21  1  0.68837500  0.14797600  0.64415100  1
  Ge  Ge22  1  0.31162500  0.14797600  0.85584900  1
  Ge  Ge23  1  0.18837500  0.35202400  0.35584900  1
  H  H24  1  0.96724100  0.63132600  0.84240600  1
  H  H25  1  0.53275900  0.86867400  0.34240600  1
  H  H26  1  0.46724100  0.86867400  0.15759400  1
  H  H27  1  0.03275900  0.63132600  0.65759400  1
  H  H28  1  0.03275900  0.36867400  0.15759400  1
  H  H29  1  0.46724100  0.13132600  0.65759400  1
  H  H30  1  0.53275900  0.13132600  0.84240600  1
  H  H31  1  0.96724100  0.36867400  0.34240600  1
  H  H32  1  0.25857100  0.49116200  0.81925100  1
  H  H33  1  0.24142900  0.00883800  0.31925100  1
  H  H34  1  0.75857100  0.00883800  0.18074900  1
  H  H35  1  0.74142900  0.49116200  0.68074900  1
  H  H36  1  0.74142900  0.50883800  0.18074900  1
  H  H37  1  0.75857100  0.99116200  0.68074900  1
  H  H38  1  0.24142900  0.99116200  0.81925100  1
  H  H39  1  0.25857100  0.50883800  0.31925100  1
  H  H40  1  0.54946500  0.81987100  0.92769500  1
  H  H41  1  0.95053500  0.68012900  0.42769500  1
  H  H42  1  0.04946500  0.68012900  0.07230500  1
  H  H43  1  0.45053500  0.81987100  0.57230500  1
  H  H44  1  0.45053500  0.18012900  0.07230500  1
  H  H45  1  0.04946500  0.31987100  0.57230500  1
  H  H46  1  0.95053500  0.31987100  0.92769500  1
  H  H47  1  0.54946500  0.18012900  0.42769500  1
  H  H48  1  0.40456400  0.81951400  0.91813700  1
  H  H49  1  0.09543600  0.68048600  0.41813700  1
  H  H50  1  0.90456400  0.68048600  0.08186300  1
  H  H51  1  0.59543600  0.81951400  0.58186300  1
  H  H52  1  0.59543600  0.18048600  0.08186300  1
  H  H53  1  0.90456400  0.31951400  0.58186300  1
  H  H54  1  0.09543600  0.31951400  0.91813700  1
  H  H55  1  0.40456400  0.18048600  0.41813700  1
  H  H56  1  0.55450600  0.66455400  0.02374100  1
  H  H57  1  0.94549400  0.83544600  0.52374100  1
  H  H58  1  0.05450600  0.83544600  0.97625900  1
  H  H59  1  0.44549400  0.66455400  0.47625900  1
  H  H60  1  0.44549400  0.33544600  0.97625900  1
  H  H61  1  0.05450600  0.16455400  0.47625900  1
  H  H62  1  0.94549400  0.16455400  0.02374100  1
  H  H63  1  0.55450600  0.33544600  0.52374100  1
  H  H64  1  0.41009600  0.65301400  0.01204400  1
  H  H65  1  0.08990400  0.84698600  0.51204400  1
  H  H66  1  0.91009600  0.84698600  0.98795600  1
  H  H67  1  0.58990400  0.65301400  0.48795600  1
  H  H68  1  0.58990400  0.34698600  0.98795600  1
  H  H69  1  0.91009600  0.15301400  0.48795600  1
  H  H70  1  0.08990400  0.15301400  0.01204400  1
  H  H71  1  0.41009600  0.34698600  0.51204400  1
  H  H72  1  0.22517600  0.45325900  0.65701900  1
  H  H73  1  0.27482400  0.04674100  0.15701900  1
  H  H74  1  0.72517600  0.04674100  0.34298100  1
  H  H75  1  0.77482400  0.45325900  0.84298100  1
  H  H76  1  0.77482400  0.54674100  0.34298100  1
  H  H77  1  0.72517600  0.95325900  0.84298100  1
  H  H78  1  0.27482400  0.95325900  0.65701900  1
  H  H79  1  0.22517600  0.54674100  0.15701900  1
  H  H80  1  0.22873400  0.35678300  0.71891600  1
  H  H81  1  0.27126600  0.14321700  0.21891600  1
  H  H82  1  0.72873400  0.14321700  0.28108400  1
  H  H83  1  0.77126600  0.35678300  0.78108400  1
  H  H84  1  0.77126600  0.64321700  0.28108400  1
  H  H85  1  0.72873400  0.85678300  0.78108400  1
  H  H86  1  0.27126600  0.85678300  0.71891600  1
  H  H87  1  0.22873400  0.64321700  0.21891600  1
  H  H88  1  0.24630500  0.40881600  0.06576100  1
  H  H89  1  0.25369500  0.09118400  0.56576100  1
  H  H90  1  0.74630500  0.09118400  0.93423900  1
  H  H91  1  0.75369500  0.40881600  0.43423900  1
  H  H92  1  0.75369500  0.59118400  0.93423900  1
  H  H93  1  0.74630500  0.90881600  0.43423900  1
  H  H94  1  0.25369500  0.90881600  0.06576100  1
  H  H95  1  0.24630500  0.59118400  0.56576100  1
  H  H96  1  0.26215400  0.49197700  0.98783400  1
  H  H97  1  0.23784600  0.00802300  0.48783400  1
  H  H98  1  0.76215400  0.00802300  0.01216600  1
  H  H99  1  0.73784600  0.49197700  0.51216600  1
  H  H100  1  0.73784600  0.50802300  0.01216600  1
  H  H101  1  0.76215400  0.99197700  0.51216600  1
  H  H102  1  0.23784600  0.99197700  0.98783400  1
  H  H103  1  0.26215400  0.50802300  0.48783400  1
  H  H104  1  0.42650000  0.67011900  0.74317000  1
  H  H105  1  0.07350000  0.82988100  0.24317000  1
  H  H106  1  0.92650000  0.82988100  0.25683000  1
  H  H107  1  0.57350000  0.67011900  0.75683000  1
  H  H108  1  0.57350000  0.32988100  0.25683000  1
  H  H109  1  0.92650000  0.17011900  0.75683000  1
  H  H110  1  0.07350000  0.17011900  0.74317000  1
  H  H111  1  0.42650000  0.32988100  0.24317000  1
  H  H112  1  0.07030600  0.84758900  0.74256400  1
  H  H113  1  0.42969400  0.65241100  0.24256400  1
  H  H114  1  0.57030600  0.65241100  0.25743600  1
  H  H115  1  0.92969400  0.84758900  0.75743600  1
  H  H116  1  0.92969400  0.15241100  0.25743600  1
  H  H117  1  0.57030600  0.34758900  0.75743600  1
  H  H118  1  0.42969400  0.34758900  0.74256400  1
  H  H119  1  0.07030600  0.15241100  0.24256400  1
  S  S120  1  0.21226700  0.70747400  0.71413500  1
  S  S121  1  0.28773300  0.79252600  0.21413500  1
  S  S122  1  0.71226700  0.79252600  0.28586500  1
  S  S123  1  0.78773300  0.70747400  0.78586500  1
  S  S124  1  0.78773300  0.29252600  0.28586500  1
  S  S125  1  0.71226700  0.20747400  0.78586500  1
  S  S126  1  0.28773300  0.20747400  0.71413500  1
  S  S127  1  0.21226700  0.29252600  0.21413500  1
  S  S128  1  0.22430200  0.73673700  0.97969900  1
  S  S129  1  0.27569800  0.76326300  0.47969900  1
  S  S130  1  0.72430200  0.76326300  0.02030100  1
  S  S131  1  0.77569800  0.73673700  0.52030100  1
  S  S132  1  0.77569800  0.26326300  0.02030100  1
  S  S133  1  0.72430200  0.23673700  0.52030100  1
  S  S134  1  0.27569800  0.23673700  0.97969900  1
  S  S135  1  0.22430200  0.26326300  0.47969900  1
  O  O136  1  0.03564800  0.58896700  0.86313500  1
  O  O137  1  0.46435200  0.91103300  0.36313500  1
  O  O138  1  0.53564800  0.91103300  0.13686500  1
  O  O139  1  0.96435200  0.58896700  0.63686500  1
  O  O140  1  0.96435200  0.41103300  0.13686500  1
  O  O141  1  0.53564800  0.08896700  0.63686500  1
  O  O142  1  0.46435200  0.08896700  0.86313500  1
  O  O143  1  0.03564800  0.41103300  0.36313500  1
  O  O144  1  0.27885700  0.53598200  0.87254500  1
  O  O145  1  0.22114300  0.96401800  0.37254500  1
  O  O146  1  0.77885700  0.96401800  0.12745500  1
  O  O147  1  0.72114300  0.53598200  0.62745500  1
  O  O148  1  0.72114300  0.46401800  0.12745500  1
  O  O149  1  0.77885700  0.03598200  0.62745500  1
  O  O150  1  0.22114300  0.03598200  0.87254500  1
  O  O151  1  0.27885700  0.46401800  0.37254500  1
  O  O152  1  0.47921400  0.85670800  0.90129300  1
  O  O153  1  0.02078600  0.64329200  0.40129300  1
  O  O154  1  0.97921400  0.64329200  0.09870700  1
  O  O155  1  0.52078600  0.85670800  0.59870700  1
  O  O156  1  0.52078600  0.14329200  0.09870700  1
  O  O157  1  0.97921400  0.35670800  0.59870700  1
  O  O158  1  0.02078600  0.35670800  0.90129300  1
  O  O159  1  0.47921400  0.14329200  0.40129300  1
  O  O160  1  0.48835600  0.61620000  0.01391000  1
  O  O161  1  0.01164400  0.88380000  0.51391000  1
  O  O162  1  0.98835600  0.88380000  0.98609000  1
  O  O163  1  0.51164400  0.61620000  0.48609000  1
  O  O164  1  0.51164400  0.38380000  0.98609000  1
  O  O165  1  0.98835600  0.11620000  0.48609000  1
  O  O166  1  0.01164400  0.11620000  0.01391000  1
  O  O167  1  0.48835600  0.38380000  0.51391000  1
  O  O168  1  0.20929700  0.42651400  0.72124300  1
  O  O169  1  0.29070300  0.07348600  0.22124300  1
  O  O170  1  0.70929700  0.07348600  0.27875700  1
  O  O171  1  0.79070300  0.42651400  0.77875700  1
  O  O172  1  0.79070300  0.57348600  0.27875700  1
  O  O173  1  0.70929700  0.92651400  0.77875700  1
  O  O174  1  0.29070300  0.92651400  0.72124300  1
  O  O175  1  0.20929700  0.57348600  0.22124300  1
  O  O176  1  0.24365400  0.47862900  0.05585900  1
  O  O177  1  0.25634600  0.02137100  0.55585900  1
  O  O178  1  0.74365400  0.02137100  0.94414100  1
  O  O179  1  0.75634600  0.47862900  0.44414100  1
  O  O180  1  0.75634600  0.52137100  0.94414100  1
  O  O181  1  0.74365400  0.97862900  0.44414100  1
  O  O182  1  0.25634600  0.97862900  0.05585900  1
  O  O183  1  0.24365400  0.52137100  0.55585900  1
  O  O184  1  0.50000000  0.62859600  0.75000000  1
  O  O185  1  0.00000000  0.87140400  0.25000000  1
  O  O186  1  0.50000000  0.37140400  0.25000000  1
  O  O187  1  0.00000000  0.12859600  0.75000000  1
  O  O188  1  0.00000000  0.89203900  0.75000000  1
  O  O189  1  0.50000000  0.60796100  0.25000000  1
  O  O190  1  0.00000000  0.10796100  0.25000000  1
  O  O191  1  0.50000000  0.39203900  0.75000000  1
