# generated using pymatgen
data_YHSO5
_symmetry_space_group_name_H-M   'P 1'
_cell_length_a   11.12690300
_cell_length_b   8.05027800
_cell_length_c   11.13695388
_cell_angle_alpha   47.65260910
_cell_angle_beta   90.00000000
_cell_angle_gamma   90.00000000
_symmetry_Int_Tables_number   1
_chemical_formula_structural   YHSO5
_chemical_formula_sum   'Y8 H8 S8 O40'
_cell_volume   737.29218157
_cell_formula_units_Z   8
loop_
 _symmetry_equiv_pos_site_id
 _symmetry_equiv_pos_as_xyz
  1  'x, y, z'
loop_
 _atom_site_type_symbol
 _atom_site_label
 _atom_site_symmetry_multiplicity
 _atom_site_fract_x
 _atom_site_fract_y
 _atom_site_fract_z
 _atom_site_occupancy
  Y  Y0  1  0.43578400  0.21019200  0.12733400  1
  Y  Y1  1  0.06421600  0.21019200  0.62733400  1
  Y  Y2  1  0.56421600  0.78980800  0.87266600  1
  Y  Y3  1  0.93578400  0.78980800  0.37266600  1
  Y  Y4  1  0.42370900  0.71982300  0.59191500  1
  Y  Y5  1  0.07629100  0.71982300  0.09191500  1
  Y  Y6  1  0.57629100  0.28017700  0.40808500  1
  Y  Y7  1  0.92370900  0.28017700  0.90808500  1
  H  H8  1  0.58619500  0.45758700  0.85960500  1
  H  H9  1  0.91380500  0.45758700  0.35960500  1
  H  H10  1  0.41380500  0.54241300  0.14039500  1
  H  H11  1  0.08619500  0.54241300  0.64039500  1
  H  H12  1  0.61141800  0.95408800  0.37693200  1
  H  H13  1  0.88858200  0.95408800  0.87693200  1
  H  H14  1  0.38858200  0.04591200  0.62306800  1
  H  H15  1  0.11141800  0.04591200  0.12306800  1
  S  S16  1  0.32998700  0.13323400  0.86481700  1
  S  S17  1  0.17001300  0.13323400  0.36481700  1
  S  S18  1  0.67001300  0.86676600  0.13518300  1
  S  S19  1  0.82998700  0.86676600  0.63518300  1
  S  S20  1  0.69096900  0.41074800  0.63329700  1
  S  S21  1  0.80903100  0.41074800  0.13329700  1
  S  S22  1  0.30903100  0.58925200  0.36670300  1
  S  S23  1  0.19096900  0.58925200  0.86670300  1
  O  O24  1  0.33075100  0.12164300  0.00315200  1
  O  O25  1  0.16924900  0.12164300  0.50315200  1
  O  O26  1  0.66924900  0.87835700  0.99684800  1
  O  O27  1  0.83075100  0.87835700  0.49684800  1
  O  O28  1  0.73898900  0.31774400  0.79301400  1
  O  O29  1  0.76101100  0.31774400  0.29301400  1
  O  O30  1  0.26101100  0.68225600  0.20698600  1
  O  O31  1  0.23898900  0.68225600  0.70698600  1
  O  O32  1  0.79194400  0.49813900  0.51746400  1
  O  O33  1  0.70805600  0.49813900  0.01746400  1
  O  O34  1  0.20805600  0.50186100  0.48253600  1
  O  O35  1  0.29194400  0.50186100  0.98253600  1
  O  O36  1  0.37433400  0.35374300  0.71737400  1
  O  O37  1  0.12566600  0.35374300  0.21737400  1
  O  O38  1  0.62566600  0.64625700  0.28262600  1
  O  O39  1  0.87433400  0.64625700  0.78262600  1
  O  O40  1  0.60443100  0.59212600  0.57424000  1
  O  O41  1  0.89556900  0.59212600  0.07424000  1
  O  O42  1  0.39556900  0.40787400  0.42576000  1
  O  O43  1  0.10443100  0.40787400  0.92576000  1
  O  O44  1  0.53939200  0.02986500  0.37023200  1
  O  O45  1  0.96060800  0.02986500  0.87023200  1
  O  O46  1  0.46060800  0.97013500  0.62976800  1
  O  O47  1  0.03939200  0.97013500  0.12976800  1
  O  O48  1  0.50891100  0.51676800  0.85904900  1
  O  O49  1  0.99108900  0.51676800  0.35904900  1
  O  O50  1  0.49108900  0.48323200  0.14095100  1
  O  O51  1  0.00891100  0.48323200  0.64095100  1
  O  O52  1  0.37143100  0.76769800  0.35189900  1
  O  O53  1  0.12856900  0.76769800  0.85189900  1
  O  O54  1  0.62856900  0.23230200  0.64810100  1
  O  O55  1  0.87143100  0.23230200  0.14810100  1
  O  O56  1  0.59552000  0.04765900  0.10081900  1
  O  O57  1  0.90448000  0.04765900  0.60081900  1
  O  O58  1  0.40448000  0.95234100  0.89918100  1
  O  O59  1  0.09552000  0.95234100  0.39918100  1
  O  O60  1  0.29861400  0.09735600  0.34343500  1
  O  O61  1  0.20138600  0.09735600  0.84343500  1
  O  O62  1  0.70138600  0.90264400  0.65656500  1
  O  O63  1  0.79861400  0.90264400  0.15656500  1
