# generated using pymatgen
data_HC5N3(OF4)2
_symmetry_space_group_name_H-M   'P 1'
_cell_length_a   6.83530300
_cell_length_b   10.43171600
_cell_length_c   14.07339059
_cell_angle_alpha   75.45075041
_cell_angle_beta   90.00000000
_cell_angle_gamma   90.00000000
_symmetry_Int_Tables_number   1
_chemical_formula_structural   HC5N3(OF4)2
_chemical_formula_sum   'H4 C20 N12 O8 F32'
_cell_volume   971.30839832
_cell_formula_units_Z   4
loop_
 _symmetry_equiv_pos_site_id
 _symmetry_equiv_pos_as_xyz
  1  'x, y, z'
loop_
 _atom_site_type_symbol
 _atom_site_label
 _atom_site_symmetry_multiplicity
 _atom_site_fract_x
 _atom_site_fract_y
 _atom_site_fract_z
 _atom_site_occupancy
  H  H0  1  0.38291600  0.00111600  0.08184700  1
  H  H1  1  0.88291600  0.99888400  0.41815300  1
  H  H2  1  0.61708400  0.99888400  0.91815300  1
  H  H3  1  0.11708400  0.00111600  0.58184700  1
  C  C4  1  0.55599300  0.29460100  0.17978900  1
  C  C5  1  0.05599300  0.70539900  0.32021100  1
  C  C6  1  0.44400700  0.70539900  0.82021100  1
  C  C7  1  0.94400700  0.29460100  0.67978900  1
  C  C8  1  0.33300500  0.09881000  0.19018800  1
  C  C9  1  0.83300500  0.90119000  0.30981200  1
  C  C10  1  0.66699500  0.90119000  0.80981200  1
  C  C11  1  0.16699500  0.09881000  0.69018800  1
  C  C12  1  0.58041900  0.15180600  0.05971000  1
  C  C13  1  0.08041900  0.84819400  0.44029000  1
  C  C14  1  0.41958100  0.84819400  0.94029000  1
  C  C15  1  0.91958100  0.15180600  0.55971000  1
  C  C16  1  0.81718100  0.32842600  0.05171500  1
  C  C17  1  0.31718100  0.67157400  0.44828500  1
  C  C18  1  0.18281900  0.67157400  0.94828500  1
  C  C19  1  0.68281900  0.32842600  0.55171500  1
  C  C20  1  0.29950600  0.23100900  0.30904200  1
  C  C21  1  0.79950600  0.76899100  0.19095800  1
  C  C22  1  0.70049400  0.76899100  0.69095800  1
  C  C23  1  0.20049400  0.23100900  0.80904200  1
  N  N24  1  0.64592300  0.25568600  0.09857000  1
  N  N25  1  0.14592300  0.74431400  0.40143000  1
  N  N26  1  0.35407700  0.74431400  0.90143000  1
  N  N27  1  0.85407700  0.25568600  0.59857000  1
  N  N28  1  0.39359300  0.21131400  0.22080200  1
  N  N29  1  0.89359300  0.78868600  0.27919800  1
  N  N30  1  0.60640700  0.78868600  0.77919800  1
  N  N31  1  0.10640700  0.21131400  0.72080200  1
  N  N32  1  0.42161700  0.08349300  0.10588000  1
  N  N33  1  0.92161700  0.91650700  0.39412000  1
  N  N34  1  0.57838300  0.91650700  0.89412000  1
  N  N35  1  0.07838300  0.08349300  0.60588000  1
  O  O36  1  0.66152800  0.12541900  0.98903000  1
  O  O37  1  0.16152800  0.87458100  0.51097000  1
  O  O38  1  0.33847200  0.87458100  0.01097000  1
  O  O39  1  0.83847200  0.12541900  0.48903000  1
  O  O40  1  0.20788400  0.02322500  0.23365300  1
  O  O41  1  0.70788400  0.97677500  0.26634700  1
  O  O42  1  0.79211600  0.97677500  0.76634700  1
  O  O43  1  0.29211600  0.02322500  0.73365300  1
  F  F44  1  0.69219400  0.29391400  0.25164900  1
  F  F45  1  0.19219400  0.70608600  0.24835100  1
  F  F46  1  0.30780600  0.70608600  0.74835100  1
  F  F47  1  0.80780600  0.29391400  0.75164900  1
  F  F48  1  0.49362200  0.42447200  0.14806500  1
  F  F49  1  0.99362200  0.57552800  0.35193500  1
  F  F50  1  0.50637800  0.57552800  0.85193500  1
  F  F51  1  0.00637800  0.42447200  0.64806500  1
  F  F52  1  0.35929700  0.34494900  0.32825400  1
  F  F53  1  0.85929700  0.65505100  0.17174600  1
  F  F54  1  0.64070300  0.65505100  0.67174600  1
  F  F55  1  0.14070300  0.34494900  0.82825400  1
  F  F56  1  0.10292100  0.23777100  0.29780800  1
  F  F57  1  0.60292100  0.76222900  0.20219200  1
  F  F58  1  0.89707900  0.76222900  0.70219200  1
  F  F59  1  0.39707900  0.23777100  0.79780800  1
  F  F60  1  0.34131000  0.13041800  0.38832700  1
  F  F61  1  0.84131000  0.86958200  0.11167300  1
  F  F62  1  0.65869000  0.86958200  0.61167300  1
  F  F63  1  0.15869000  0.13041800  0.88832700  1
  F  F64  1  0.97524700  0.24770700  0.06000800  1
  F  F65  1  0.47524700  0.75229300  0.43999200  1
  F  F66  1  0.02475300  0.75229300  0.93999200  1
  F  F67  1  0.52475300  0.24770700  0.56000800  1
  F  F68  1  0.86236600  0.42682800  0.09424800  1
  F  F69  1  0.36236600  0.57317200  0.40575200  1
  F  F70  1  0.13763400  0.57317200  0.90575200  1
  F  F71  1  0.63763400  0.42682800  0.59424800  1
  F  F72  1  0.78479100  0.38377000  0.95557500  1
  F  F73  1  0.28479100  0.61623000  0.54442500  1
  F  F74  1  0.21520900  0.61623000  0.04442500  1
  F  F75  1  0.71520900  0.38377000  0.45557500  1
