# generated using pymatgen
data_H8C2SeS2(N2Cl)2
_symmetry_space_group_name_H-M   'P 1'
_cell_length_a   16.75984100
_cell_length_b   8.20348600
_cell_length_c   8.66881644
_cell_angle_alpha   61.21523571
_cell_angle_beta   90.00000000
_cell_angle_gamma   90.00000000
_symmetry_Int_Tables_number   1
_chemical_formula_structural   H8C2SeS2(N2Cl)2
_chemical_formula_sum   'H32 C8 Se4 S8 N16 Cl8'
_cell_volume   1044.59449519
_cell_formula_units_Z   4
loop_
 _symmetry_equiv_pos_site_id
 _symmetry_equiv_pos_as_xyz
  1  'x, y, z'
loop_
 _atom_site_type_symbol
 _atom_site_label
 _atom_site_symmetry_multiplicity
 _atom_site_fract_x
 _atom_site_fract_y
 _atom_site_fract_z
 _atom_site_occupancy
  H  H0  1  0.61411200  0.76959500  0.53335100  1
  H  H1  1  0.11411200  0.23040500  0.96664900  1
  H  H2  1  0.38588800  0.23040500  0.46664900  1
  H  H3  1  0.88588800  0.76959500  0.03335100  1
  H  H4  1  0.51682700  0.73335700  0.48677700  1
  H  H5  1  0.01682700  0.26664300  0.01322300  1
  H  H6  1  0.48317300  0.26664300  0.51322300  1
  H  H7  1  0.98317300  0.73335700  0.98677700  1
  H  H8  1  0.63986700  0.78254000  0.80692300  1
  H  H9  1  0.13986700  0.21746000  0.69307700  1
  H  H10  1  0.36013300  0.21746000  0.19307700  1
  H  H11  1  0.86013300  0.78254000  0.30692300  1
  H  H12  1  0.55834300  0.75286500  0.94509800  1
  H  H13  1  0.05834300  0.24713500  0.55490200  1
  H  H14  1  0.44165700  0.24713500  0.05490200  1
  H  H15  1  0.94165700  0.75286500  0.44509800  1
  H  H16  1  0.10377500  0.96017100  0.48649200  1
  H  H17  1  0.60377500  0.03982900  0.01350800  1
  H  H18  1  0.89622500  0.03982900  0.51350800  1
  H  H19  1  0.39622500  0.96017100  0.98649200  1
  H  H20  1  0.18201100  0.08801500  0.34126700  1
  H  H21  1  0.68201100  0.91198500  0.15873300  1
  H  H22  1  0.81798900  0.91198500  0.65873300  1
  H  H23  1  0.31798900  0.08801500  0.84126700  1
  H  H24  1  0.12636700  0.65347700  0.70176600  1
  H  H25  1  0.62636700  0.34652300  0.79823400  1
  H  H26  1  0.87363300  0.34652300  0.29823400  1
  H  H27  1  0.37363300  0.65347700  0.20176600  1
  H  H28  1  0.22135400  0.54873700  0.72063400  1
  H  H29  1  0.72135400  0.45126300  0.77936600  1
  H  H30  1  0.77864600  0.45126300  0.27936600  1
  H  H31  1  0.27864600  0.54873700  0.22063400  1
  C  C32  1  0.53056000  0.74282900  0.71893300  1
  C  C33  1  0.03056000  0.25717100  0.78106700  1
  C  C34  1  0.46944000  0.25717100  0.28106700  1
  C  C35  1  0.96944000  0.74282900  0.21893300  1
  C  C36  1  0.20932000  0.82037900  0.52807700  1
  C  C37  1  0.70932000  0.17962100  0.97192300  1
  C  C38  1  0.79068000  0.17962100  0.47192300  1
  C  C39  1  0.29068000  0.82037900  0.02807700  1
  Se  Se40  1  0.37245600  0.58962500  0.62775600  1
  Se  Se41  1  0.87245600  0.41037500  0.87224400  1
  Se  Se42  1  0.62754400  0.41037500  0.37224400  1
  Se  Se43  1  0.12754400  0.58962500  0.12775600  1
  S  S44  1  0.43113400  0.69542900  0.79308700  1
  S  S45  1  0.93113400  0.30457100  0.70691300  1
  S  S46  1  0.56886600  0.30457100  0.20691300  1
  S  S47  1  0.06886600  0.69542900  0.29308700  1
  S  S48  1  0.30633900  0.84821500  0.44174700  1
  S  S49  1  0.80633900  0.15178500  0.05825300  1
  S  S50  1  0.69366100  0.15178500  0.55825300  1
  S  S51  1  0.19366100  0.84821500  0.94174700  1
  N  N52  1  0.55452000  0.75419900  0.56868900  1
  N  N53  1  0.05452000  0.24580100  0.93131100  1
  N  N54  1  0.44548000  0.24580100  0.43131100  1
  N  N55  1  0.94548000  0.75419900  0.06868900  1
  N  N56  1  0.57917700  0.76586300  0.82761100  1
  N  N57  1  0.07917700  0.23413700  0.67238900  1
  N  N58  1  0.42082300  0.23413700  0.17238900  1
  N  N59  1  0.92082300  0.76586300  0.32761100  1
  N  N60  1  0.16255800  0.96862400  0.44948200  1
  N  N61  1  0.66255800  0.03137600  0.05051800  1
  N  N62  1  0.83744200  0.03137600  0.55051800  1
  N  N63  1  0.33744200  0.96862400  0.94948200  1
  N  N64  1  0.18431500  0.66106700  0.65872900  1
  N  N65  1  0.68431500  0.33893300  0.84127100  1
  N  N66  1  0.81568500  0.33893300  0.34127100  1
  N  N67  1  0.31568500  0.66106700  0.15872900  1
  Cl  Cl68  1  0.49669600  0.25494200  0.80817200  1
  Cl  Cl69  1  0.99669600  0.74505800  0.69182800  1
  Cl  Cl70  1  0.50330400  0.74505800  0.19182800  1
  Cl  Cl71  1  0.00330400  0.25494200  0.30817200  1
  Cl  Cl72  1  0.26918400  0.29165000  0.55984700  1
  Cl  Cl73  1  0.76918400  0.70835000  0.94015300  1
  Cl  Cl74  1  0.73081600  0.70835000  0.44015300  1
  Cl  Cl75  1  0.23081600  0.29165000  0.05984700  1
