# generated using pymatgen
data_H8C2SeS2(BrN2)2
_symmetry_space_group_name_H-M   'P 1'
_cell_length_a   16.75746200
_cell_length_b   8.73664900
_cell_length_c   9.30254035
_cell_angle_alpha   62.44390897
_cell_angle_beta   90.00000000
_cell_angle_gamma   90.00000000
_symmetry_Int_Tables_number   1
_chemical_formula_structural   H8C2SeS2(BrN2)2
_chemical_formula_sum   'H32 C8 Se4 S8 Br8 N16'
_cell_volume   1207.43018171
_cell_formula_units_Z   4
loop_
 _symmetry_equiv_pos_site_id
 _symmetry_equiv_pos_as_xyz
  1  'x, y, z'
loop_
 _atom_site_type_symbol
 _atom_site_label
 _atom_site_symmetry_multiplicity
 _atom_site_fract_x
 _atom_site_fract_y
 _atom_site_fract_z
 _atom_site_occupancy
  H  H0  1  0.61334800  0.23310600  0.45098400  1
  H  H1  1  0.11334800  0.76689400  0.04901600  1
  H  H2  1  0.38665200  0.76689400  0.54901600  1
  H  H3  1  0.88665200  0.23310600  0.95098400  1
  H  H4  1  0.51576600  0.27883700  0.48860500  1
  H  H5  1  0.01576600  0.72116300  0.01139500  1
  H  H6  1  0.48423400  0.72116300  0.51139500  1
  H  H7  1  0.98423400  0.27883700  0.98860500  1
  H  H8  1  0.63584500  0.21750700  0.19310300  1
  H  H9  1  0.13584500  0.78249300  0.30689700  1
  H  H10  1  0.36415500  0.78249300  0.80689700  1
  H  H11  1  0.86415500  0.21750700  0.69310300  1
  H  H12  1  0.55404200  0.25407800  0.06607000  1
  H  H13  1  0.05404200  0.74592200  0.43393000  1
  H  H14  1  0.44595800  0.74592200  0.93393000  1
  H  H15  1  0.94595800  0.25407800  0.56607000  1
  H  H16  1  0.11342500  0.04202600  0.55948500  1
  H  H17  1  0.61342500  0.95797400  0.94051500  1
  H  H18  1  0.88657500  0.95797400  0.44051500  1
  H  H19  1  0.38657500  0.04202600  0.05948500  1
  H  H20  1  0.19348000  0.93575700  0.53590200  1
  H  H21  1  0.69348000  0.06424300  0.96409800  1
  H  H22  1  0.80652000  0.06424300  0.46409800  1
  H  H23  1  0.30652000  0.93575700  0.03590200  1
  H  H24  1  0.13191300  0.30025400  0.32601400  1
  H  H25  1  0.63191300  0.69974600  0.17398600  1
  H  H26  1  0.86808700  0.69974600  0.67398600  1
  H  H27  1  0.36808700  0.30025400  0.82601400  1
  H  H28  1  0.18936800  0.97013500  0.69937100  1
  H  H29  1  0.68936800  0.02986500  0.80062900  1
  H  H30  1  0.81063200  0.02986500  0.30062900  1
  H  H31  1  0.31063200  0.97013500  0.19937100  1
  C  C32  1  0.52914100  0.26667800  0.27671700  1
  C  C33  1  0.02914100  0.73332200  0.22328300  1
  C  C34  1  0.47085900  0.73332200  0.72328300  1
  C  C35  1  0.97085900  0.26667800  0.77671700  1
  C  C36  1  0.21881000  0.19234900  0.47396800  1
  C  C37  1  0.71881000  0.80765100  0.02603200  1
  C  C38  1  0.78119000  0.80765100  0.52603200  1
  C  C39  1  0.28119000  0.19234900  0.97396800  1
  Se  Se40  1  0.37772400  0.41741200  0.37197600  1
  Se  Se41  1  0.87772400  0.58258800  0.12802400  1
  Se  Se42  1  0.62227600  0.58258800  0.62802400  1
  Se  Se43  1  0.12227600  0.41741200  0.87197600  1
  S  S44  1  0.42935300  0.32223500  0.20907800  1
  S  S45  1  0.92935300  0.67776500  0.29092200  1
  S  S46  1  0.57064700  0.67776500  0.79092200  1
  S  S47  1  0.07064700  0.32223500  0.70907800  1
  S  S48  1  0.31668600  0.17537400  0.55342100  1
  S  S49  1  0.81668600  0.82462600  0.94657900  1
  S  S50  1  0.68331400  0.82462600  0.44657900  1
  S  S51  1  0.18331400  0.17537400  0.05342100  1
  Br  Br52  1  0.48694200  0.75515900  0.18021100  1
  Br  Br53  1  0.98694200  0.24484100  0.31978900  1
  Br  Br54  1  0.51305800  0.24484100  0.81978900  1
  Br  Br55  1  0.01305800  0.75515900  0.68021100  1
  Br  Br56  1  0.26092400  0.78918900  0.43904600  1
  Br  Br57  1  0.76092400  0.21081100  0.06095400  1
  Br  Br58  1  0.73907600  0.21081100  0.56095400  1
  Br  Br59  1  0.23907600  0.78918900  0.93904600  1
  N  N60  1  0.55390600  0.25254000  0.41714000  1
  N  N61  1  0.05390600  0.74746000  0.08286000  1
  N  N62  1  0.44609400  0.74746000  0.58286000  1
  N  N63  1  0.94609400  0.25254000  0.91714000  1
  N  N64  1  0.57556500  0.24053400  0.17521700  1
  N  N65  1  0.07556500  0.75946600  0.32478300  1
  N  N66  1  0.42443500  0.75946600  0.82478300  1
  N  N67  1  0.92443500  0.24053400  0.67521700  1
  N  N68  1  0.17477800  0.02793200  0.57404300  1
  N  N69  1  0.67477800  0.97206800  0.92595700  1
  N  N70  1  0.82522200  0.97206800  0.42595700  1
  N  N71  1  0.32522200  0.02793200  0.07404300  1
  N  N72  1  0.19045100  0.31794200  0.35104600  1
  N  N73  1  0.69045100  0.68205800  0.14895400  1
  N  N74  1  0.80954900  0.68205800  0.64895400  1
  N  N75  1  0.30954900  0.31794200  0.85104600  1
