# generated using pymatgen
data_MgH12(ClO5)2
_symmetry_space_group_name_H-M   'P 1'
_cell_length_a   7.46837000
_cell_length_b   7.46837000
_cell_length_c   10.16911500
_cell_angle_alpha   90.00000000
_cell_angle_beta   90.00000000
_cell_angle_gamma   90.00000000
_symmetry_Int_Tables_number   1
_chemical_formula_structural   MgH12(ClO5)2
_chemical_formula_sum   'Mg2 H24 Cl4 O20'
_cell_volume   567.19815590
_cell_formula_units_Z   2
loop_
 _symmetry_equiv_pos_site_id
 _symmetry_equiv_pos_as_xyz
  1  'x, y, z'
loop_
 _atom_site_type_symbol
 _atom_site_label
 _atom_site_symmetry_multiplicity
 _atom_site_fract_x
 _atom_site_fract_y
 _atom_site_fract_z
 _atom_site_occupancy
  Mg  Mg0  1  0.50000000  0.50000000  0.00000000  1
  Mg  Mg1  1  0.00000000  0.00000000  0.50000000  1
  H  H2  1  0.50000000  0.60821300  0.26052600  1
  H  H3  1  0.50000000  0.39178700  0.26052600  1
  H  H4  1  0.10821300  0.00000000  0.76052600  1
  H  H5  1  0.89178700  0.00000000  0.76052600  1
  H  H6  1  0.00000000  0.89178700  0.23947400  1
  H  H7  1  0.00000000  0.10821300  0.23947400  1
  H  H8  1  0.39178700  0.50000000  0.73947400  1
  H  H9  1  0.60821300  0.50000000  0.73947400  1
  H  H10  1  0.19356100  0.30504700  0.05523100  1
  H  H11  1  0.80643900  0.30504700  0.05523100  1
  H  H12  1  0.19356100  0.69495300  0.05523100  1
  H  H13  1  0.80643900  0.69495300  0.05523100  1
  H  H14  1  0.80504700  0.69356100  0.55523100  1
  H  H15  1  0.19495300  0.69356100  0.55523100  1
  H  H16  1  0.80504700  0.30643900  0.55523100  1
  H  H17  1  0.19495300  0.30643900  0.55523100  1
  H  H18  1  0.30643900  0.19495300  0.44476900  1
  H  H19  1  0.69356100  0.19495300  0.44476900  1
  H  H20  1  0.30643900  0.80504700  0.44476900  1
  H  H21  1  0.69356100  0.80504700  0.44476900  1
  H  H22  1  0.69495300  0.80643900  0.94476900  1
  H  H23  1  0.30504700  0.80643900  0.94476900  1
  H  H24  1  0.69495300  0.19356100  0.94476900  1
  H  H25  1  0.30504700  0.19356100  0.94476900  1
  Cl  Cl26  1  0.00000000  0.50000000  0.74063900  1
  Cl  Cl27  1  0.00000000  0.50000000  0.24063900  1
  Cl  Cl28  1  0.50000000  0.00000000  0.75936100  1
  Cl  Cl29  1  0.50000000  0.00000000  0.25936100  1
  O  O30  1  0.17374200  0.50000000  0.64965600  1
  O  O31  1  0.82625800  0.50000000  0.64965600  1
  O  O32  1  0.00000000  0.67374200  0.14965600  1
  O  O33  1  0.00000000  0.32625800  0.14965600  1
  O  O34  1  0.32625800  0.00000000  0.85034400  1
  O  O35  1  0.67374200  0.00000000  0.85034400  1
  O  O36  1  0.50000000  0.82625800  0.35034400  1
  O  O37  1  0.50000000  0.17374200  0.35034400  1
  O  O38  1  0.50000000  0.50000000  0.20569800  1
  O  O39  1  0.00000000  0.00000000  0.70569800  1
  O  O40  1  0.00000000  0.00000000  0.29430200  1
  O  O41  1  0.50000000  0.50000000  0.79430200  1
  O  O42  1  0.30328500  0.30328500  0.00000000  1
  O  O43  1  0.69671500  0.30328500  0.00000000  1
  O  O44  1  0.30328500  0.69671500  0.00000000  1
  O  O45  1  0.69671500  0.69671500  0.00000000  1
  O  O46  1  0.80328500  0.80328500  0.50000000  1
  O  O47  1  0.19671500  0.80328500  0.50000000  1
  O  O48  1  0.80328500  0.19671500  0.50000000  1
  O  O49  1  0.19671500  0.19671500  0.50000000  1
