# generated using pymatgen
data_K7P6H2NO22
_symmetry_space_group_name_H-M   'P 1'
_cell_length_a   6.61529000
_cell_length_b   9.85941879
_cell_length_c   9.89909775
_cell_angle_alpha   75.86469342
_cell_angle_beta   72.86518820
_cell_angle_gamma   73.62889729
_symmetry_Int_Tables_number   1
_chemical_formula_structural   K7P6H2NO22
_chemical_formula_sum   'K7 P6 H2 N1 O22'
_cell_volume   582.75745826
_cell_formula_units_Z   1
loop_
 _symmetry_equiv_pos_site_id
 _symmetry_equiv_pos_as_xyz
  1  'x, y, z'
loop_
 _atom_site_type_symbol
 _atom_site_label
 _atom_site_symmetry_multiplicity
 _atom_site_fract_x
 _atom_site_fract_y
 _atom_site_fract_z
 _atom_site_occupancy
  K  K0  1  0.71821100  0.54975200  0.16265300  1
  K  K1  1  0.50084500  0.99928500  0.99995300  1
  K  K2  1  0.75529700  0.15146200  0.55450900  1
  K  K3  1  0.32485800  0.28396200  0.27391800  1
  K  K4  1  0.28612500  0.44745500  0.83789200  1
  K  K5  1  0.24985200  0.84450800  0.44591900  1
  K  K6  1  0.66924700  0.72145300  0.73419400  1
  P  P7  1  0.18018000  0.69906600  0.08869100  1
  P  P8  1  0.07324300  0.85763600  0.81750200  1
  P  P9  1  0.18516000  0.13872800  0.70260900  1
  P  P10  1  0.82366300  0.29799700  0.91159500  1
  P  P11  1  0.93091000  0.13791800  0.18365000  1
  P  P12  1  0.81872500  0.85795900  0.29846700  1
  H  H13  1  0.45587500  0.47652100  0.46997700  1
  H  H14  1  0.23218400  0.54147500  0.43294100  1
  N  N15  1  0.82434100  0.49024800  0.52681500  1
  O  O16  1  0.39939600  0.73415600  0.03016700  1
  O  O17  1  0.01284400  0.79755600  0.98880500  1
  O  O18  1  0.16061600  0.54629200  0.11061900  1
  O  O19  1  0.06393600  0.76393500  0.23762300  1
  O  O20  1  0.23894900  0.74429200  0.73997700  1
  O  O21  1  0.86059300  0.91989700  0.77504500  1
  O  O22  1  0.19070900  0.98459800  0.81360700  1
  O  O23  1  0.19364500  0.11680900  0.55584300  1
  O  O24  1  0.35282400  0.20025900  0.72641100  1
  O  O25  1  0.94111600  0.23228800  0.76299200  1
  O  O26  1  0.60408600  0.26215100  0.96738100  1
  O  O27  1  0.84256200  0.45061700  0.88893700  1
  O  O28  1  0.98934800  0.19968800  0.01198700  1
  O  O29  1  0.76421200  0.24911700  0.26199900  1
  O  O30  1  0.14595400  0.07559400  0.22330200  1
  O  O31  1  0.81523100  0.01062000  0.18627600  1
  O  O32  1  0.65154600  0.79590600  0.27589000  1
  O  O33  1  0.80987000  0.88148200  0.44506900  1
  O  O34  1  0.38770800  0.50976700  0.38920500  1
  O  O35  1  0.62785200  0.50518800  0.60110000  1
  O  O36  1  0.95134600  0.55032000  0.55333200  1
  O  O37  1  0.88904000  0.41667100  0.42813700  1
