# generated using pymatgen
data_NaB(HO)4
_symmetry_space_group_name_H-M   'P 1'
_cell_length_a   10.74404300
_cell_length_b   5.96623100
_cell_length_c   6.24494200
_cell_angle_alpha   67.94023421
_cell_angle_beta   90.00000000
_cell_angle_gamma   90.00000000
_symmetry_Int_Tables_number   1
_chemical_formula_structural   NaB(HO)4
_chemical_formula_sum   'Na4 B4 H16 O16'
_cell_volume   371.00414894
_cell_formula_units_Z   4
loop_
 _symmetry_equiv_pos_site_id
 _symmetry_equiv_pos_as_xyz
  1  'x, y, z'
loop_
 _atom_site_type_symbol
 _atom_site_label
 _atom_site_symmetry_multiplicity
 _atom_site_fract_x
 _atom_site_fract_y
 _atom_site_fract_z
 _atom_site_occupancy
  Na  Na0  1  0.01692000  0.74998300  0.23893700  1
  Na  Na1  1  0.51692000  0.75001700  0.76106300  1
  Na  Na2  1  0.98308000  0.25001700  0.76106300  1
  Na  Na3  1  0.48308000  0.24998300  0.23893700  1
  B  B4  1  0.09062500  0.72434300  0.72213800  1
  B  B5  1  0.59062500  0.77565700  0.27786200  1
  B  B6  1  0.90937500  0.27565700  0.27786200  1
  B  B7  1  0.40937500  0.22434300  0.72213800  1
  H  H8  1  0.91037600  0.83853800  0.62524600  1
  H  H9  1  0.41037600  0.66146200  0.37475400  1
  H  H10  1  0.08962400  0.16146200  0.37475400  1
  H  H11  1  0.58962400  0.33853800  0.62524600  1
  H  H12  1  0.18635800  0.93099400  0.85916100  1
  H  H13  1  0.68635800  0.56900600  0.14083900  1
  H  H14  1  0.81364200  0.06900600  0.14083900  1
  H  H15  1  0.31364200  0.43099400  0.85916100  1
  H  H16  1  0.12637400  0.42927500  0.00957000  1
  H  H17  1  0.62637400  0.07072500  0.99043000  1
  H  H18  1  0.87362600  0.57072500  0.99043000  1
  H  H19  1  0.37362600  0.92927500  0.00957000  1
  H  H20  1  0.24103100  0.84133100  0.50242300  1
  H  H21  1  0.74103100  0.65866900  0.49757700  1
  H  H22  1  0.75896900  0.15866900  0.49757700  1
  H  H23  1  0.25896900  0.34133100  0.50242300  1
  O  O24  1  0.95673600  0.68402300  0.68217600  1
  O  O25  1  0.45673600  0.81597700  0.31782400  1
  O  O26  1  0.04326400  0.31597700  0.31782400  1
  O  O27  1  0.54326400  0.18402300  0.68217600  1
  O  O28  1  0.09822800  0.88115300  0.85716900  1
  O  O29  1  0.59822800  0.61884700  0.14283100  1
  O  O30  1  0.90177200  0.11884700  0.14283100  1
  O  O31  1  0.40177200  0.38115300  0.85716900  1
  O  O32  1  0.14902500  0.48338100  0.84502800  1
  O  O33  1  0.64902500  0.01661900  0.15497200  1
  O  O34  1  0.85097500  0.51661900  0.15497200  1
  O  O35  1  0.35097500  0.98338100  0.84502800  1
  O  O36  1  0.15052600  0.83770400  0.48933500  1
  O  O37  1  0.65052600  0.66229600  0.51066500  1
  O  O38  1  0.84947400  0.16229600  0.51066500  1
  O  O39  1  0.34947400  0.33770400  0.48933500  1
