# generated using pymatgen
data_Na2ZnP2(H5O6)2
_symmetry_space_group_name_H-M   'P 1'
_cell_length_a   13.44996000
_cell_length_b   9.05068900
_cell_length_c   10.20085186
_cell_angle_alpha   63.62703366
_cell_angle_beta   90.00000000
_cell_angle_gamma   90.00000000
_symmetry_Int_Tables_number   1
_chemical_formula_structural   Na2ZnP2(H5O6)2
_chemical_formula_sum   'Na8 Zn4 P8 H40 O48'
_cell_volume   1112.52303099
_cell_formula_units_Z   4
loop_
 _symmetry_equiv_pos_site_id
 _symmetry_equiv_pos_as_xyz
  1  'x, y, z'
loop_
 _atom_site_type_symbol
 _atom_site_label
 _atom_site_symmetry_multiplicity
 _atom_site_fract_x
 _atom_site_fract_y
 _atom_site_fract_z
 _atom_site_occupancy
  Na  Na0  1  0.46473800  0.83546200  0.86344200  1
  Na  Na1  1  0.96473800  0.16453800  0.63655800  1
  Na  Na2  1  0.53526200  0.16453800  0.13655800  1
  Na  Na3  1  0.03526200  0.83546200  0.36344200  1
  Na  Na4  1  0.27620100  0.68020800  0.69806100  1
  Na  Na5  1  0.77620100  0.31979200  0.80193900  1
  Na  Na6  1  0.72379900  0.31979200  0.30193900  1
  Na  Na7  1  0.22379900  0.68020800  0.19806100  1
  Zn  Zn8  1  0.34042500  0.40311400  0.53677100  1
  Zn  Zn9  1  0.84042500  0.59688600  0.96322900  1
  Zn  Zn10  1  0.65957500  0.59688600  0.46322900  1
  Zn  Zn11  1  0.15957500  0.40311400  0.03677100  1
  P  P12  1  0.43915100  0.74288400  0.38975400  1
  P  P13  1  0.93915100  0.25711600  0.11024600  1
  P  P14  1  0.56084900  0.25711600  0.61024600  1
  P  P15  1  0.06084900  0.74288400  0.88975400  1
  P  P16  1  0.18796300  0.26981100  0.79663600  1
  P  P17  1  0.68796300  0.73018900  0.70336400  1
  P  P18  1  0.81203700  0.73018900  0.20336400  1
  P  P19  1  0.31203700  0.26981100  0.29663600  1
  H  H20  1  0.35963200  0.99076000  0.28127900  1
  H  H21  1  0.85963200  0.00924000  0.21872100  1
  H  H22  1  0.64036800  0.00924000  0.71872100  1
  H  H23  1  0.14036800  0.99076000  0.78127900  1
  H  H24  1  0.02328000  0.28215200  0.85296500  1
  H  H25  1  0.52328000  0.71784800  0.64703500  1
  H  H26  1  0.97672000  0.71784800  0.14703500  1
  H  H27  1  0.47672000  0.28215200  0.35296500  1
  H  H28  1  0.64640000  0.74502400  0.05348400  1
  H  H29  1  0.14640000  0.25497600  0.44651600  1
  H  H30  1  0.35360000  0.25497600  0.94651600  1
  H  H31  1  0.85360000  0.74502400  0.55348400  1
  H  H32  1  0.55802200  0.73080300  0.15991700  1
  H  H33  1  0.05802200  0.26919700  0.34008300  1
  H  H34  1  0.44197800  0.26919700  0.84008300  1
  H  H35  1  0.94197800  0.73080300  0.65991700  1
  H  H36  1  0.60796400  0.05688400  0.41756500  1
  H  H37  1  0.10796400  0.94311600  0.08243500  1
  H  H38  1  0.39203600  0.94311600  0.58243500  1
  H  H39  1  0.89203600  0.05688400  0.91756500  1
  H  H40  1  0.68403300  0.95513800  0.37545700  1
  H  H41  1  0.18403300  0.04486200  0.12454300  1
  H  H42  1  0.31596700  0.04486200  0.62454300  1
  H  H43  1  0.81596700  0.95513800  0.87545700  1
  H  H44  1  0.70216000  0.03591200  0.06011800  1
  H  H45  1  0.20216000  0.96408800  0.43988200  1
  H  H46  1  0.29784000  0.96408800  0.93988200  1
  H  H47  1  0.79784000  0.03591200  0.56011800  1
  H  H48  1  0.63177600  0.08704600  0.92190200  1
  H  H49  1  0.13177600  0.91295400  0.57809800  1
  H  H50  1  0.36822400  0.91295400  0.07809800  1
  H  H51  1  0.86822400  0.08704600  0.42190200  1
  H  H52  1  0.64878300  0.46298400  0.99410800  1
  H  H53  1  0.14878300  0.53701600  0.50589200  1
  H  H54  1  0.35121700  0.53701600  0.00589200  1
  H  H55  1  0.85121700  0.46298400  0.49410800  1
  H  H56  1  0.57792800  0.51512200  0.08586400  1
  H  H57  1  0.07792800  0.48487800  0.41413600  1
  H  H58  1  0.42207200  0.48487800  0.91413600  1
  H  H59  1  0.92207200  0.51512200  0.58586400  1
  O  O60  1  0.35634000  0.62878200  0.38098900  1
  O  O61  1  0.85634000  0.37121800  0.11901100  1
  O  O62  1  0.64366000  0.37121800  0.61901100  1
  O  O63  1  0.14366000  0.62878200  0.88098900  1
  O  O64  1  0.45929300  0.30136100  0.65493500  1
  O  O65  1  0.95929300  0.69863900  0.84506500  1
  O  O66  1  0.54070700  0.69863900  0.34506500  1
  O  O67  1  0.04070700  0.30136100  0.15493500  1
  O  O68  1  0.23714700  0.42135300  0.66899500  1
  O  O69  1  0.73714700  0.57864700  0.83100500  1
  O  O70  1  0.76285300  0.57864700  0.33100500  1
  O  O71  1  0.26285300  0.42135300  0.16899500  1
  O  O72  1  0.28485400  0.26734400  0.44609600  1
  O  O73  1  0.78485400  0.73265600  0.05390400  1
  O  O74  1  0.71514600  0.73265600  0.55390400  1
  O  O75  1  0.21514600  0.26734400  0.94609600  1
  O  O76  1  0.44065200  0.74724600  0.53803700  1
  O  O77  1  0.94065200  0.25275400  0.96196300  1
  O  O78  1  0.55934800  0.25275400  0.46196300  1
  O  O79  1  0.05934800  0.74724600  0.03803700  1
  O  O80  1  0.41516000  0.92397500  0.26106400  1
  O  O81  1  0.91516000  0.07602500  0.23893600  1
  O  O82  1  0.58484000  0.07602500  0.73893600  1
  O  O83  1  0.08484000  0.92397500  0.76106400  1
  O  O84  1  0.07164000  0.29502400  0.76933000  1
  O  O85  1  0.57164000  0.70497600  0.73067000  1
  O  O86  1  0.92836000  0.70497600  0.23067000  1
  O  O87  1  0.42836000  0.29502400  0.26933000  1
  O  O88  1  0.21925600  0.10767400  0.79556100  1
  O  O89  1  0.71925600  0.89232600  0.70443900  1
  O  O90  1  0.78074400  0.89232600  0.20443900  1
  O  O91  1  0.28074400  0.10767400  0.29556100  1
  O  O92  1  0.57314200  0.73799400  0.06190300  1
  O  O93  1  0.07314200  0.26200600  0.43809700  1
  O  O94  1  0.42685800  0.26200600  0.93809700  1
  O  O95  1  0.92685800  0.73799400  0.56190300  1
  O  O96  1  0.64650300  0.05907600  0.33590300  1
  O  O97  1  0.14650300  0.94092400  0.16409700  1
  O  O98  1  0.35349700  0.94092400  0.66409700  1
  O  O99  1  0.85349700  0.05907600  0.83590300  1
  O  O100  1  0.66217000  0.12839400  0.98679100  1
  O  O101  1  0.16217000  0.87160600  0.51320900  1
  O  O102  1  0.33783000  0.87160600  0.01320900  1
  O  O103  1  0.83783000  0.12839400  0.48679100  1
  O  O104  1  0.61476900  0.41896700  0.08945400  1
  O  O105  1  0.11476900  0.58103300  0.41054600  1
  O  O106  1  0.38523100  0.58103300  0.91054600  1
  O  O107  1  0.88523100  0.41896700  0.58945400  1
