# generated using pymatgen
data_InP(H2O3)2
_symmetry_space_group_name_H-M   'P 1'
_cell_length_a   8.91771700
_cell_length_b   10.30642400
_cell_length_c   10.50725600
_cell_angle_alpha   90.00000000
_cell_angle_beta   90.00000000
_cell_angle_gamma   90.00000000
_symmetry_Int_Tables_number   1
_chemical_formula_structural   InP(H2O3)2
_chemical_formula_sum   'In8 P8 H32 O48'
_cell_volume   965.71950871
_cell_formula_units_Z   8
loop_
 _symmetry_equiv_pos_site_id
 _symmetry_equiv_pos_as_xyz
  1  'x, y, z'
loop_
 _atom_site_type_symbol
 _atom_site_label
 _atom_site_symmetry_multiplicity
 _atom_site_fract_x
 _atom_site_fract_y
 _atom_site_fract_z
 _atom_site_occupancy
  In  In0  1  0.65160600  0.67305500  0.63042300  1
  In  In1  1  0.15160600  0.82694500  0.36957700  1
  In  In2  1  0.34839400  0.17305500  0.86957700  1
  In  In3  1  0.84839400  0.32694500  0.13042300  1
  In  In4  1  0.34839400  0.32694500  0.36957700  1
  In  In5  1  0.84839400  0.17305500  0.63042300  1
  In  In6  1  0.65160600  0.82694500  0.13042300  1
  In  In7  1  0.15160600  0.67305500  0.86957700  1
  P  P8  1  0.53160500  0.35867700  0.65232900  1
  P  P9  1  0.03160500  0.14132300  0.34767100  1
  P  P10  1  0.46839500  0.85867700  0.84767100  1
  P  P11  1  0.96839500  0.64132300  0.15232900  1
  P  P12  1  0.46839500  0.64132300  0.34767100  1
  P  P13  1  0.96839500  0.85867700  0.65232900  1
  P  P14  1  0.53160500  0.14132300  0.15232900  1
  P  P15  1  0.03160500  0.35867700  0.84767100  1
  H  H16  1  0.81235900  0.46570300  0.55894700  1
  H  H17  1  0.31235900  0.03429700  0.44105300  1
  H  H18  1  0.18764100  0.96570300  0.94105300  1
  H  H19  1  0.68764100  0.53429700  0.05894700  1
  H  H20  1  0.18764100  0.53429700  0.44105300  1
  H  H21  1  0.68764100  0.96570300  0.55894700  1
  H  H22  1  0.81235900  0.03429700  0.05894700  1
  H  H23  1  0.31235900  0.46570300  0.94105300  1
  H  H24  1  0.87396200  0.57594600  0.46442500  1
  H  H25  1  0.37396200  0.92405400  0.53557500  1
  H  H26  1  0.12603800  0.07594600  0.03557500  1
  H  H27  1  0.62603800  0.42405400  0.96442500  1
  H  H28  1  0.12603800  0.42405400  0.53557500  1
  H  H29  1  0.62603800  0.07594600  0.46442500  1
  H  H30  1  0.87396200  0.92405400  0.96442500  1
  H  H31  1  0.37396200  0.57594600  0.03557500  1
  H  H32  1  0.71136000  0.67205900  0.87641200  1
  H  H33  1  0.21136000  0.82794100  0.12358800  1
  H  H34  1  0.28864000  0.17205900  0.62358800  1
  H  H35  1  0.78864000  0.32794100  0.37641200  1
  H  H36  1  0.28864000  0.32794100  0.12358800  1
  H  H37  1  0.78864000  0.17205900  0.87641200  1
  H  H38  1  0.71136000  0.82794100  0.37641200  1
  H  H39  1  0.21136000  0.67205900  0.62358800  1
  H  H40  1  0.84100300  0.57022900  0.82206500  1
  H  H41  1  0.34100300  0.92977100  0.17793500  1
  H  H42  1  0.15899700  0.07022900  0.67793500  1
  H  H43  1  0.65899700  0.42977100  0.32206500  1
  H  H44  1  0.15899700  0.42977100  0.17793500  1
  H  H45  1  0.65899700  0.07022900  0.82206500  1
  H  H46  1  0.84100300  0.92977100  0.32206500  1
  H  H47  1  0.34100300  0.57022900  0.67793500  1
  O  O48  1  0.84661100  0.55761100  0.55286000  1
  O  O49  1  0.34661100  0.94238900  0.44714000  1
  O  O50  1  0.15338900  0.05761100  0.94714000  1
  O  O51  1  0.65338900  0.44238900  0.05286000  1
  O  O52  1  0.15338900  0.44238900  0.44714000  1
  O  O53  1  0.65338900  0.05761100  0.55286000  1
  O  O54  1  0.84661100  0.94238900  0.05286000  1
  O  O55  1  0.34661100  0.55761100  0.94714000  1
  O  O56  1  0.73412200  0.60260400  0.81402000  1
  O  O57  1  0.23412200  0.89739600  0.18598000  1
  O  O58  1  0.26587800  0.10260400  0.68598000  1
  O  O59  1  0.76587800  0.39739600  0.31402000  1
  O  O60  1  0.26587800  0.39739600  0.18598000  1
  O  O61  1  0.76587800  0.10260400  0.81402000  1
  O  O62  1  0.73412200  0.89739600  0.31402000  1
  O  O63  1  0.23412200  0.60260400  0.68598000  1
  O  O64  1  0.49090400  0.80493000  0.71139700  1
  O  O65  1  0.99090400  0.69507000  0.28860300  1
  O  O66  1  0.50909600  0.30493000  0.78860300  1
  O  O67  1  0.00909600  0.19507000  0.21139700  1
  O  O68  1  0.50909600  0.19507000  0.28860300  1
  O  O69  1  0.00909600  0.30493000  0.71139700  1
  O  O70  1  0.49090400  0.69507000  0.21139700  1
  O  O71  1  0.99090400  0.80493000  0.78860300  1
  O  O72  1  0.58298300  0.70992000  0.43769800  1
  O  O73  1  0.08298300  0.79008000  0.56230200  1
  O  O74  1  0.41701700  0.20992000  0.06230200  1
  O  O75  1  0.91701700  0.29008000  0.93769800  1
  O  O76  1  0.41701700  0.29008000  0.56230200  1
  O  O77  1  0.91701700  0.20992000  0.43769800  1
  O  O78  1  0.58298300  0.79008000  0.93769800  1
  O  O79  1  0.08298300  0.70992000  0.06230200  1
  O  O80  1  0.80372100  0.83574600  0.60724700  1
  O  O81  1  0.30372100  0.66425400  0.39275300  1
  O  O82  1  0.19627900  0.33574600  0.89275300  1
  O  O83  1  0.69627900  0.16425400  0.10724700  1
  O  O84  1  0.19627900  0.16425400  0.39275300  1
  O  O85  1  0.69627900  0.33574600  0.60724700  1
  O  O86  1  0.80372100  0.66425400  0.10724700  1
  O  O87  1  0.30372100  0.83574600  0.89275300  1
  O  O88  1  0.50284000  0.50780800  0.64820900  1
  O  O89  1  0.00284000  0.99219200  0.35179100  1
  O  O90  1  0.49716000  0.00780800  0.85179100  1
  O  O91  1  0.99716000  0.49219200  0.14820900  1
  O  O92  1  0.49716000  0.49219200  0.35179100  1
  O  O93  1  0.99716000  0.00780800  0.64820900  1
  O  O94  1  0.50284000  0.99219200  0.14820900  1
  O  O95  1  0.00284000  0.50780800  0.85179100  1
