# generated using pymatgen
data_AlH18(NO6)3
_symmetry_space_group_name_H-M   'P 1'
_cell_length_a   9.66077800
_cell_length_b   10.97491700
_cell_length_c   13.97294452
_cell_angle_alpha   84.30688736
_cell_angle_beta   90.00000000
_cell_angle_gamma   90.00000000
_symmetry_Int_Tables_number   1
_chemical_formula_structural   AlH18(NO6)3
_chemical_formula_sum   'Al4 H72 N12 O72'
_cell_volume   1474.19123376
_cell_formula_units_Z   4
loop_
 _symmetry_equiv_pos_site_id
 _symmetry_equiv_pos_as_xyz
  1  'x, y, z'
loop_
 _atom_site_type_symbol
 _atom_site_label
 _atom_site_symmetry_multiplicity
 _atom_site_fract_x
 _atom_site_fract_y
 _atom_site_fract_z
 _atom_site_occupancy
  Al  Al0  1  0.50000000  0.50000000  0.00000000  1
  Al  Al1  1  0.00000000  0.00000000  0.00000000  1
  Al  Al2  1  0.50000000  0.00000000  0.50000000  1
  Al  Al3  1  0.00000000  0.50000000  0.50000000  1
  H  H4  1  0.64993400  0.57026100  0.85211800  1
  H  H5  1  0.14993400  0.92973900  0.14788200  1
  H  H6  1  0.35006600  0.42973900  0.14788200  1
  H  H7  1  0.85006600  0.07026100  0.85211800  1
  H  H8  1  0.69986600  0.43195700  0.89646500  1
  H  H9  1  0.19986600  0.06804300  0.10353500  1
  H  H10  1  0.30013400  0.56804300  0.10353500  1
  H  H11  1  0.80013400  0.93195700  0.89646500  1
  H  H12  1  0.41495000  0.72495400  0.94902400  1
  H  H13  1  0.91495000  0.77504600  0.05097600  1
  H  H14  1  0.58505000  0.27504600  0.05097600  1
  H  H15  1  0.08505000  0.22495400  0.94902400  1
  H  H16  1  0.35588900  0.63318200  0.87384300  1
  H  H17  1  0.85588900  0.86681800  0.12615700  1
  H  H18  1  0.64411100  0.36681800  0.12615700  1
  H  H19  1  0.14411100  0.13318200  0.87384300  1
  H  H20  1  0.42364400  0.36964300  0.86471600  1
  H  H21  1  0.92364400  0.13035700  0.13528400  1
  H  H22  1  0.57635600  0.63035700  0.13528400  1
  H  H23  1  0.07635600  0.86964300  0.86471600  1
  H  H24  1  0.29402700  0.38047100  0.94135900  1
  H  H25  1  0.79402700  0.11952900  0.05864100  1
  H  H26  1  0.70597300  0.61952900  0.05864100  1
  H  H27  1  0.20597300  0.88047100  0.94135900  1
  H  H28  1  0.64753800  0.06868300  0.35005600  1
  H  H29  1  0.14753800  0.43131700  0.64994400  1
  H  H30  1  0.35246200  0.93131700  0.64994400  1
  H  H31  1  0.85246200  0.56868300  0.35005600  1
  H  H32  1  0.69020500  0.92646700  0.38761200  1
  H  H33  1  0.19020500  0.57353300  0.61238800  1
  H  H34  1  0.30979500  0.07353300  0.61238800  1
  H  H35  1  0.80979500  0.42646700  0.38761200  1
  H  H36  1  0.40922900  0.22105900  0.43974400  1
  H  H37  1  0.90922900  0.27894100  0.56025600  1
  H  H38  1  0.59077100  0.77894100  0.56025600  1
  H  H39  1  0.09077100  0.72105900  0.43974400  1
  H  H40  1  0.36824100  0.12258900  0.36513900  1
  H  H41  1  0.86824100  0.37741100  0.63486100  1
  H  H42  1  0.63175900  0.87741100  0.63486100  1
  H  H43  1  0.13175900  0.62258900  0.36513900  1
  H  H44  1  0.42035200  0.81734700  0.40361300  1
  H  H45  1  0.92035200  0.68265300  0.59638700  1
  H  H46  1  0.57964800  0.18265300  0.59638700  1
  H  H47  1  0.07964800  0.31734700  0.40361300  1
  H  H48  1  0.28802000  0.88458100  0.44572200  1
  H  H49  1  0.78802000  0.61541900  0.55427800  1
  H  H50  1  0.71198000  0.11541900  0.55427800  1
  H  H51  1  0.21198000  0.38458100  0.44572200  1
  H  H52  1  0.07031000  0.43117100  0.92273700  1
  H  H53  1  0.57031000  0.06882900  0.07726300  1
  H  H54  1  0.92969000  0.56882900  0.07726300  1
  H  H55  1  0.42969000  0.93117100  0.92273700  1
  H  H56  1  0.10177300  0.39005500  0.03228200  1
  H  H57  1  0.60177300  0.10994500  0.96771800  1
  H  H58  1  0.89822700  0.60994500  0.96771800  1
  H  H59  1  0.39822700  0.89005500  0.03228200  1
  H  H60  1  0.06674700  0.92202600  0.39955000  1
  H  H61  1  0.56674700  0.57797400  0.60045000  1
  H  H62  1  0.93325300  0.07797400  0.60045000  1
  H  H63  1  0.43325300  0.42202600  0.39955000  1
  H  H64  1  0.06563800  0.87984900  0.51168000  1
  H  H65  1  0.56563800  0.62015100  0.48832000  1
  H  H66  1  0.93436200  0.12015100  0.48832000  1
  H  H67  1  0.43436200  0.37984900  0.51168000  1
  H  H68  1  0.97518800  0.38772700  0.18261400  1
  H  H69  1  0.47518800  0.11227300  0.81738600  1
  H  H70  1  0.02481200  0.61227300  0.81738600  1
  H  H71  1  0.52481200  0.88772700  0.18261400  1
  H  H72  1  0.08632400  0.48985900  0.18846100  1
  H  H73  1  0.58632400  0.01014100  0.81153900  1
  H  H74  1  0.91367600  0.51014100  0.81153900  1
  H  H75  1  0.41367600  0.98985900  0.18846100  1
  N  N76  1  0.81143900  0.29294800  0.79854900  1
  N  N77  1  0.31143900  0.20705200  0.20145100  1
  N  N78  1  0.18856100  0.70705200  0.20145100  1
  N  N79  1  0.68856100  0.79294900  0.79854900  1
  N  N80  1  0.71290800  0.28047500  0.28490400  1
  N  N81  1  0.21290800  0.21952500  0.71509600  1
  N  N82  1  0.28709200  0.71952500  0.71509600  1
  N  N83  1  0.78709200  0.78047500  0.28490400  1
  N  N84  1  0.00942200  0.12686500  0.30585000  1
  N  N85  1  0.50942200  0.37313500  0.69415000  1
  N  N86  1  0.99057800  0.87313500  0.69415000  1
  N  N87  1  0.49057800  0.62686500  0.30585000  1
  O  O88  1  0.64237600  0.50505200  0.90694800  1
  O  O89  1  0.14237600  0.99494800  0.09305200  1
  O  O90  1  0.35762400  0.49494800  0.09305200  1
  O  O91  1  0.85762400  0.00505200  0.90694800  1
  O  O92  1  0.41513800  0.63766600  0.93237300  1
  O  O93  1  0.91513800  0.86233400  0.06762700  1
  O  O94  1  0.58486200  0.36233400  0.06762700  1
  O  O95  1  0.08486200  0.13766600  0.93237300  1
  O  O96  1  0.39528300  0.39441000  0.92870900  1
  O  O97  1  0.89528300  0.10559000  0.07129100  1
  O  O98  1  0.60471700  0.60559000  0.07129100  1
  O  O99  1  0.10471700  0.89441000  0.92870900  1
  O  O100  1  0.63793100  0.00084900  0.40311200  1
  O  O101  1  0.13793100  0.49915100  0.59688800  1
  O  O102  1  0.36206900  0.99915100  0.59688800  1
  O  O103  1  0.86206900  0.50084900  0.40311200  1
  O  O104  1  0.40865500  0.13143700  0.43042700  1
  O  O105  1  0.90865500  0.36856300  0.56957300  1
  O  O106  1  0.59134500  0.86856300  0.56957300  1
  O  O107  1  0.09134500  0.63143700  0.43042700  1
  O  O108  1  0.38964100  0.89273700  0.43216700  1
  O  O109  1  0.88964100  0.60726300  0.56783300  1
  O  O110  1  0.61035900  0.10726300  0.56783300  1
  O  O111  1  0.11035900  0.39273700  0.43216700  1
  O  O112  1  0.12224200  0.36954200  0.96614000  1
  O  O113  1  0.62224200  0.13045800  0.03386000  1
  O  O114  1  0.87775800  0.63045800  0.03386000  1
  O  O115  1  0.37775800  0.86954200  0.96614000  1
  O  O116  1  0.11476700  0.86862600  0.45102100  1
  O  O117  1  0.61476700  0.63137400  0.54897900  1
  O  O118  1  0.88523300  0.13137400  0.54897900  1
  O  O119  1  0.38523300  0.36862600  0.45102100  1
  O  O120  1  0.02689600  0.45153300  0.14266000  1
  O  O121  1  0.52689600  0.04846700  0.85734000  1
  O  O122  1  0.97310400  0.54846700  0.85734000  1
  O  O123  1  0.47310400  0.95153300  0.14266000  1
  O  O124  1  0.66518300  0.69404700  0.76252100  1
  O  O125  1  0.16518300  0.80595300  0.23747900  1
  O  O126  1  0.33481700  0.30595300  0.23747900  1
  O  O127  1  0.83481700  0.19404700  0.76252100  1
  O  O128  1  0.78528700  0.29469000  0.88703700  1
  O  O129  1  0.28528700  0.20531000  0.11296300  1
  O  O130  1  0.21471300  0.70531000  0.11296300  1
  O  O131  1  0.71471300  0.79469000  0.88703700  1
  O  O132  1  0.31378600  0.10489200  0.25535700  1
  O  O133  1  0.81378600  0.39510800  0.74464300  1
  O  O134  1  0.68621400  0.89510800  0.74464300  1
  O  O135  1  0.18621400  0.60489200  0.25535700  1
  O  O136  1  0.84087200  0.68449800  0.25746300  1
  O  O137  1  0.34087200  0.81550200  0.74253700  1
  O  O138  1  0.15912800  0.31550200  0.74253700  1
  O  O139  1  0.65912800  0.18449800  0.25746300  1
  O  O140  1  0.73881700  0.28689600  0.37354100  1
  O  O141  1  0.23881700  0.21310400  0.62645900  1
  O  O142  1  0.26118300  0.71310400  0.62645900  1
  O  O143  1  0.76118300  0.78689600  0.37354100  1
  O  O144  1  0.25766400  0.62932600  0.77595900  1
  O  O145  1  0.75766400  0.87067400  0.22404100  1
  O  O146  1  0.74233600  0.37067400  0.22404100  1
  O  O147  1  0.24233600  0.12932600  0.77595900  1
  O  O148  1  0.45325000  0.66595800  0.38522200  1
  O  O149  1  0.95325000  0.83404200  0.61477800  1
  O  O150  1  0.54675000  0.33404200  0.61477800  1
  O  O151  1  0.04675000  0.16595800  0.38522200  1
  O  O152  1  0.98707800  0.01422100  0.30233200  1
  O  O153  1  0.48707800  0.48577900  0.69766800  1
  O  O154  1  0.01292200  0.98577900  0.69766800  1
  O  O155  1  0.51292200  0.51422100  0.30233200  1
  O  O156  1  0.99560700  0.20115200  0.23103400  1
  O  O157  1  0.49560700  0.29884800  0.76896600  1
  O  O158  1  0.00439300  0.79884800  0.76896600  1
  O  O159  1  0.50439300  0.70115200  0.23103400  1
