# generated using pymatgen
data_Na2Sn2H4O5
_symmetry_space_group_name_H-M   'P 1'
_cell_length_a   5.96075300
_cell_length_b   14.67833600
_cell_length_c   17.20906700
_cell_angle_alpha   90.00000000
_cell_angle_beta   90.00000000
_cell_angle_gamma   90.00000000
_symmetry_Int_Tables_number   1
_chemical_formula_structural   Na2Sn2H4O5
_chemical_formula_sum   'Na16 Sn16 H32 O40'
_cell_volume   1505.68899548
_cell_formula_units_Z   8
loop_
 _symmetry_equiv_pos_site_id
 _symmetry_equiv_pos_as_xyz
  1  'x, y, z'
loop_
 _atom_site_type_symbol
 _atom_site_label
 _atom_site_symmetry_multiplicity
 _atom_site_fract_x
 _atom_site_fract_y
 _atom_site_fract_z
 _atom_site_occupancy
  Na  Na0  1  0.26486300  0.69545800  0.53068800  1
  Na  Na1  1  0.76486300  0.80454200  0.46931200  1
  Na  Na2  1  0.73513700  0.19545800  0.96931200  1
  Na  Na3  1  0.23513700  0.30454200  0.03068800  1
  Na  Na4  1  0.23071900  0.56065500  0.01397200  1
  Na  Na5  1  0.73071900  0.93934500  0.98602800  1
  Na  Na6  1  0.76928100  0.06065500  0.48602800  1
  Na  Na7  1  0.26928100  0.43934500  0.51397200  1
  Na  Na8  1  0.73805000  0.69042600  0.98042000  1
  Na  Na9  1  0.23805000  0.80957400  0.01958000  1
  Na  Na10  1  0.26195000  0.19042600  0.51958000  1
  Na  Na11  1  0.76195000  0.30957400  0.48042000  1
  Na  Na12  1  0.74858100  0.57606800  0.53623600  1
  Na  Na13  1  0.24858100  0.92393200  0.46376400  1
  Na  Na14  1  0.25141900  0.07606800  0.96376400  1
  Na  Na15  1  0.75141900  0.42393200  0.03623600  1
  Sn  Sn16  1  0.38341300  0.53695700  0.69304500  1
  Sn  Sn17  1  0.88341300  0.96304300  0.30695500  1
  Sn  Sn18  1  0.61658700  0.03695700  0.80695500  1
  Sn  Sn19  1  0.11658700  0.46304300  0.19304500  1
  Sn  Sn20  1  0.89244500  0.51779500  0.85234500  1
  Sn  Sn21  1  0.39244500  0.98220500  0.14765500  1
  Sn  Sn22  1  0.10755500  0.01779500  0.64765500  1
  Sn  Sn23  1  0.60755500  0.48220500  0.35234500  1
  Sn  Sn24  1  0.63884500  0.76363000  0.67389500  1
  Sn  Sn25  1  0.13884500  0.73637000  0.32610500  1
  Sn  Sn26  1  0.36115500  0.26363000  0.82610500  1
  Sn  Sn27  1  0.86115500  0.23637000  0.17389500  1
  Sn  Sn28  1  0.14408300  0.73419300  0.83689400  1
  Sn  Sn29  1  0.64408300  0.76580700  0.16310600  1
  Sn  Sn30  1  0.85591700  0.23419300  0.66310600  1
  Sn  Sn31  1  0.35591700  0.26580700  0.33689400  1
  H  H32  1  0.03341500  0.59358300  0.62915100  1
  H  H33  1  0.53341500  0.90641700  0.37084900  1
  H  H34  1  0.96658500  0.09358300  0.87084900  1
  H  H35  1  0.46658500  0.40641700  0.12915100  1
  H  H36  1  0.49121600  0.55755500  0.89805800  1
  H  H37  1  0.99121600  0.94244500  0.10194200  1
  H  H38  1  0.50878400  0.05755500  0.60194200  1
  H  H39  1  0.00878400  0.44244500  0.39805800  1
  H  H40  1  0.51000600  0.80225200  0.88592400  1
  H  H41  1  0.01000600  0.69774800  0.11407600  1
  H  H42  1  0.48999400  0.30225200  0.61407600  1
  H  H43  1  0.98999400  0.19774800  0.38592400  1
  H  H44  1  0.00163100  0.79067100  0.60034700  1
  H  H45  1  0.50163100  0.70932900  0.39965300  1
  H  H46  1  0.99836900  0.29067100  0.89965300  1
  H  H47  1  0.49836900  0.20932900  0.10034700  1
  H  H48  1  0.46316200  0.89992600  0.58774500  1
  H  H49  1  0.96316200  0.60007400  0.41225500  1
  H  H50  1  0.53683800  0.39992600  0.91225500  1
  H  H51  1  0.03683800  0.10007400  0.08774500  1
  H  H52  1  0.94669900  0.88335000  0.88358200  1
  H  H53  1  0.44669900  0.61665000  0.11641800  1
  H  H54  1  0.05330100  0.38335000  0.61641800  1
  H  H55  1  0.55330100  0.11665000  0.38358200  1
  H  H56  1  0.30292500  0.93673000  0.86911900  1
  H  H57  1  0.80292500  0.56327000  0.13088100  1
  H  H58  1  0.69707500  0.43673000  0.63088100  1
  H  H59  1  0.19707500  0.06327000  0.36911900  1
  H  H60  1  0.81988400  0.91219700  0.57860800  1
  H  H61  1  0.31988400  0.58780300  0.42139200  1
  H  H62  1  0.18011600  0.41219700  0.92139200  1
  H  H63  1  0.68011600  0.08780300  0.07860800  1
  O  O64  1  0.09864900  0.53413000  0.61556400  1
  O  O65  1  0.59864900  0.96587000  0.38443600  1
  O  O66  1  0.90135100  0.03413000  0.88443600  1
  O  O67  1  0.40135100  0.46587000  0.11556400  1
  O  O68  1  0.60605400  0.52754200  0.92954000  1
  O  O69  1  0.10605400  0.97245800  0.07046000  1
  O  O70  1  0.39394600  0.02754200  0.57046000  1
  O  O71  1  0.89394600  0.47245800  0.42954000  1
  O  O72  1  0.43592400  0.74743000  0.90593500  1
  O  O73  1  0.93592400  0.75257000  0.09406500  1
  O  O74  1  0.56407600  0.24743000  0.59406500  1
  O  O75  1  0.06407600  0.25257000  0.40593500  1
  O  O76  1  0.91966400  0.73306200  0.59873100  1
  O  O77  1  0.41966400  0.76693800  0.40126900  1
  O  O78  1  0.08033600  0.23306200  0.90126900  1
  O  O79  1  0.58033600  0.26693800  0.09873100  1
  O  O80  1  0.50615200  0.64562200  0.63015600  1
  O  O81  1  0.00615200  0.85437800  0.36984400  1
  O  O82  1  0.49384800  0.14562200  0.86984400  1
  O  O83  1  0.99384800  0.35437800  0.13015600  1
  O  O84  1  0.04502600  0.62710900  0.90769800  1
  O  O85  1  0.54502600  0.87289100  0.09230200  1
  O  O86  1  0.95497400  0.12710900  0.59230200  1
  O  O87  1  0.45497400  0.37289100  0.40769800  1
  O  O88  1  0.49439900  0.83539400  0.57620300  1
  O  O89  1  0.99439900  0.66460600  0.42379700  1
  O  O90  1  0.50560100  0.33539400  0.92379700  1
  O  O91  1  0.00560100  0.16460600  0.07620300  1
  O  O92  1  0.96437800  0.82692900  0.91287500  1
  O  O93  1  0.46437800  0.67307100  0.08712500  1
  O  O94  1  0.03562200  0.32692900  0.58712500  1
  O  O95  1  0.53562200  0.17307100  0.41287500  1
  O  O96  1  0.45332200  0.94933200  0.88826500  1
  O  O97  1  0.95332200  0.55066800  0.11173500  1
  O  O98  1  0.54667800  0.44933200  0.61173500  1
  O  O99  1  0.04667800  0.05066800  0.38826500  1
  O  O100  1  0.96771100  0.93030000  0.55951000  1
  O  O101  1  0.46771100  0.56970000  0.44049000  1
  O  O102  1  0.03228900  0.43030000  0.94049000  1
  O  O103  1  0.53228900  0.06970000  0.05951000  1
