# generated using pymatgen
data_PH6NO3
_symmetry_space_group_name_H-M   'P 1'
_cell_length_a   8.28970900
_cell_length_b   6.31207300
_cell_length_c   8.95311775
_cell_angle_alpha   60.99804354
_cell_angle_beta   90.00000000
_cell_angle_gamma   90.00000000
_symmetry_Int_Tables_number   1
_chemical_formula_structural   PH6NO3
_chemical_formula_sum   'P4 H24 N4 O12'
_cell_volume   409.72893286
_cell_formula_units_Z   4
loop_
 _symmetry_equiv_pos_site_id
 _symmetry_equiv_pos_as_xyz
  1  'x, y, z'
loop_
 _atom_site_type_symbol
 _atom_site_label
 _atom_site_symmetry_multiplicity
 _atom_site_fract_x
 _atom_site_fract_y
 _atom_site_fract_z
 _atom_site_occupancy
  P  P0  1  0.60941300  0.05828500  0.68946700  1
  P  P1  1  0.10941300  0.94171500  0.81053300  1
  P  P2  1  0.39058700  0.94171500  0.31053300  1
  P  P3  1  0.89058700  0.05828500  0.18946700  1
  H  H4  1  0.45511500  0.12976100  0.61442300  1
  H  H5  1  0.95511500  0.87023900  0.88557700  1
  H  H6  1  0.54488500  0.87023900  0.38557700  1
  H  H7  1  0.04488500  0.12976100  0.11442300  1
  H  H8  1  0.77771100  0.16850500  0.46181000  1
  H  H9  1  0.27771100  0.83149500  0.03819000  1
  H  H10  1  0.22228900  0.83149500  0.53819000  1
  H  H11  1  0.72228900  0.16850500  0.96181000  1
  H  H12  1  0.76956500  0.64080800  0.68066800  1
  H  H13  1  0.26956500  0.35919200  0.81933200  1
  H  H14  1  0.23043500  0.35919200  0.31933200  1
  H  H15  1  0.73043500  0.64080800  0.18066800  1
  H  H16  1  0.85247400  0.65086900  0.50144300  1
  H  H17  1  0.35247400  0.34913100  0.99855700  1
  H  H18  1  0.14752600  0.34913100  0.49855700  1
  H  H19  1  0.64752600  0.65086900  0.00144300  1
  H  H20  1  0.96591000  0.70974400  0.63533500  1
  H  H21  1  0.46591000  0.29025600  0.86466500  1
  H  H22  1  0.03409000  0.29025600  0.36466500  1
  H  H23  1  0.53409000  0.70974400  0.13533500  1
  H  H24  1  0.90356100  0.42413500  0.69521600  1
  H  H25  1  0.40356100  0.57586500  0.80478400  1
  H  H26  1  0.09643900  0.57586500  0.30478400  1
  H  H27  1  0.59643900  0.42413500  0.19521600  1
  N  N28  1  0.87197700  0.60391300  0.62836700  1
  N  N29  1  0.37197700  0.39608700  0.87163300  1
  N  N30  1  0.12802300  0.39608700  0.37163300  1
  N  N31  1  0.62802300  0.60391300  0.12836700  1
  O  O32  1  0.73158300  0.22560700  0.54161000  1
  O  O33  1  0.23158300  0.77439300  0.95839000  1
  O  O34  1  0.26841700  0.77439300  0.45839000  1
  O  O35  1  0.76841700  0.22560700  0.04161000  1
  O  O36  1  0.62119700  0.13669300  0.82555400  1
  O  O37  1  0.12119700  0.86330700  0.67444600  1
  O  O38  1  0.37880300  0.86330700  0.17444600  1
  O  O39  1  0.87880300  0.13669300  0.32555400  1
  O  O40  1  0.62995500  0.78891900  0.75111800  1
  O  O41  1  0.12995500  0.21108100  0.74888200  1
  O  O42  1  0.37004500  0.21108100  0.24888200  1
  O  O43  1  0.87004500  0.78891900  0.25111800  1
