# generated using pymatgen
data_Na3H(SO4)2
_symmetry_space_group_name_H-M   'P 1'
_cell_length_a   8.74542800
_cell_length_b   9.23234022
_cell_length_c   9.79006967
_cell_angle_alpha   90.00033057
_cell_angle_beta   90.11934301
_cell_angle_gamma   108.56150304
_symmetry_Int_Tables_number   1
_chemical_formula_structural   Na3H(SO4)2
_chemical_formula_sum   'Na12 H4 S8 O32'
_cell_volume   749.33828733
_cell_formula_units_Z   4
loop_
 _symmetry_equiv_pos_site_id
 _symmetry_equiv_pos_as_xyz
  1  'x, y, z'
loop_
 _atom_site_type_symbol
 _atom_site_label
 _atom_site_symmetry_multiplicity
 _atom_site_fract_x
 _atom_site_fract_y
 _atom_site_fract_z
 _atom_site_occupancy
  Na  Na0  1  0.00711400  0.00057400  0.00520800  1
  Na  Na1  1  0.49847000  0.49051600  0.00140100  1
  Na  Na2  1  0.74715300  0.27474000  0.00427400  1
  Na  Na3  1  0.37943500  0.11905000  0.84409600  1
  Na  Na4  1  0.00322400  0.49722700  0.50049500  1
  Na  Na5  1  0.49681600  0.99474800  0.50099500  1
  Na  Na6  1  0.25641000  0.21640900  0.50936700  1
  Na  Na7  1  0.61461200  0.36772200  0.33929500  1
  Na  Na8  1  0.24975800  0.71563500  0.99578700  1
  Na  Na9  1  0.61433400  0.86619300  0.15563100  1
  Na  Na10  1  0.74977800  0.77308500  0.49667200  1
  Na  Na11  1  0.37915000  0.62044100  0.65808400  1
  H  H12  1  0.87682200  0.88196100  0.75917100  1
  H  H13  1  0.87590400  0.38254600  0.74141300  1
  H  H14  1  0.10078500  0.11369300  0.27186000  1
  H  H15  1  0.12145000  0.61089800  0.25403000  1
  S  S16  1  0.13581100  0.85249900  0.69205800  1
  S  S17  1  0.63001000  0.39883800  0.67938200  1
  S  S18  1  0.13599300  0.35267400  0.80766700  1
  S  S19  1  0.36565900  0.09012000  0.18157800  1
  S  S20  1  0.85819300  0.13721500  0.31013300  1
  S  S21  1  0.36797700  0.58914200  0.32123200  1
  S  S22  1  0.86242200  0.63704000  0.19251000  1
  S  S23  1  0.63125600  0.89911600  0.82084000  1
  O  O24  1  0.15897800  0.86897500  0.84335400  1
  O  O25  1  0.25353000  0.98649600  0.62423200  1
  O  O26  1  0.96531100  0.85040100  0.65846800  1
  O  O27  1  0.15743700  0.70957800  0.64198800  1
  O  O28  1  0.60940900  0.54296200  0.63463100  1
  O  O29  1  0.81027700  0.41559500  0.65675000  1
  O  O30  1  0.59721300  0.36825000  0.82650700  1
  O  O31  1  0.53539000  0.26909100  0.59404600  1
  O  O32  1  0.15803300  0.36906400  0.65611900  1
  O  O33  1  0.25499200  0.48632000  0.87532400  1
  O  O34  1  0.96593900  0.35098000  0.84166600  1
  O  O35  1  0.15773300  0.20935400  0.85683400  1
  O  O36  1  0.38477600  0.94468700  0.13449700  1
  O  O37  1  0.19042500  0.07925700  0.16870000  1
  O  O38  1  0.41325200  0.12099700  0.32756900  1
  O  O39  1  0.46391900  0.21861300  0.09442200  1
  O  O40  1  0.84891200  0.12163100  0.15910200  1
  O  O41  1  0.74198800  0.00280200  0.37555000  1
  O  O42  1  0.03131000  0.14019900  0.35411100  1
  O  O43  1  0.83973600  0.28065800  0.35846700  1
  O  O44  1  0.38241100  0.44279900  0.36650800  1
  O  O45  1  0.18921200  0.57759800  0.34027100  1
  O  O46  1  0.40527800  0.61995200  0.17431900  1
  O  O47  1  0.46556200  0.71689300  0.40743900  1
  O  O48  1  0.84128100  0.62003600  0.34391800  1
  O  O49  1  0.74468700  0.50282500  0.12479600  1
  O  O50  1  0.03292700  0.63928100  0.15754300  1
  O  O51  1  0.84094900  0.78029000  0.14335700  1
  O  O52  1  0.61329700  0.04523500  0.86455700  1
  O  O53  1  0.81111200  0.91394400  0.84446600  1
  O  O54  1  0.59725800  0.86756600  0.67411200  1
  O  O55  1  0.53423000  0.77133000  0.90688900  1
