# generated using pymatgen
data_Ca2MgB2H16(CO9)2
_symmetry_space_group_name_H-M   'P 1'
_cell_length_a   6.80007100
_cell_length_b   10.69058100
_cell_length_c   11.49749405
_cell_angle_alpha   60.28234626
_cell_angle_beta   90.00000000
_cell_angle_gamma   90.00000000
_symmetry_Int_Tables_number   1
_chemical_formula_structural   Ca2MgB2H16(CO9)2
_chemical_formula_sum   'Ca4 Mg2 B4 H32 C4 O36'
_cell_volume   725.90063758
_cell_formula_units_Z   2
loop_
 _symmetry_equiv_pos_site_id
 _symmetry_equiv_pos_as_xyz
  1  'x, y, z'
loop_
 _atom_site_type_symbol
 _atom_site_label
 _atom_site_symmetry_multiplicity
 _atom_site_fract_x
 _atom_site_fract_y
 _atom_site_fract_z
 _atom_site_occupancy
  Ca  Ca0  1  0.49920500  0.94175600  0.79528100  1
  Ca  Ca1  1  0.00079500  0.94175600  0.29528100  1
  Ca  Ca2  1  0.50079500  0.05824400  0.20471900  1
  Ca  Ca3  1  0.99920500  0.05824400  0.70471900  1
  Mg  Mg4  1  0.50000000  0.50000000  0.00000000  1
  Mg  Mg5  1  0.00000000  0.50000000  0.50000000  1
  B  B6  1  0.79649400  0.74366400  0.00455900  1
  B  B7  1  0.70350600  0.74366400  0.50455900  1
  B  B8  1  0.20350600  0.25633600  0.99544100  1
  B  B9  1  0.29649400  0.25633600  0.49544100  1
  H  H10  1  0.32946600  0.52284800  0.62316400  1
  H  H11  1  0.17053400  0.52284800  0.12316400  1
  H  H12  1  0.67053400  0.47715200  0.37683600  1
  H  H13  1  0.82946600  0.47715200  0.87683600  1
  H  H14  1  0.38653200  0.23890600  0.67156600  1
  H  H15  1  0.11346800  0.23890600  0.17156600  1
  H  H16  1  0.61346800  0.76109400  0.32843400  1
  H  H17  1  0.88653200  0.76109400  0.82843400  1
  H  H18  1  0.03631000  0.29400700  0.83304300  1
  H  H19  1  0.46369000  0.29400700  0.33304300  1
  H  H20  1  0.96369000  0.70599300  0.16695700  1
  H  H21  1  0.53631000  0.70599300  0.66695700  1
  H  H22  1  0.18257200  0.47986600  0.89751400  1
  H  H23  1  0.31742800  0.47986600  0.39751400  1
  H  H24  1  0.81742800  0.52013400  0.10248600  1
  H  H25  1  0.68257200  0.52013400  0.60248600  1
  H  H26  1  0.43532100  0.22873700  0.89149400  1
  H  H27  1  0.06467900  0.22873700  0.39149400  1
  H  H28  1  0.56467900  0.77126300  0.10850600  1
  H  H29  1  0.93532100  0.77126300  0.60850600  1
  H  H30  1  0.24677000  0.02831900  0.95359500  1
  H  H31  1  0.25323000  0.02831900  0.45359500  1
  H  H32  1  0.75323000  0.97168100  0.04640500  1
  H  H33  1  0.74677000  0.97168100  0.54640500  1
  H  H34  1  0.15556800  0.56829600  0.68075900  1
  H  H35  1  0.34443200  0.56829600  0.18075900  1
  H  H36  1  0.84443200  0.43170400  0.31924100  1
  H  H37  1  0.65556800  0.43170400  0.81924100  1
  H  H38  1  0.13038700  0.88159700  0.98375500  1
  H  H39  1  0.36961300  0.88159700  0.48375500  1
  H  H40  1  0.86961300  0.11840300  0.01624500  1
  H  H41  1  0.63038700  0.11840300  0.51624500  1
  C  C42  1  0.23059900  0.74659000  0.77702700  1
  C  C43  1  0.26940100  0.74659000  0.27702700  1
  C  C44  1  0.76940100  0.25341000  0.22297300  1
  C  C45  1  0.73059900  0.25341000  0.72297300  1
  O  O46  1  0.21080500  0.88482700  0.70689600  1
  O  O47  1  0.28919500  0.88482700  0.20689600  1
  O  O48  1  0.78919500  0.11517300  0.29310400  1
  O  O49  1  0.71080500  0.11517300  0.79310400  1
  O  O50  1  0.39435400  0.69782700  0.84400700  1
  O  O51  1  0.10564600  0.69782700  0.34400700  1
  O  O52  1  0.60564600  0.30217300  0.15599300  1
  O  O53  1  0.89435400  0.30217300  0.65599300  1
  O  O54  1  0.20329100  0.96863200  0.91378200  1
  O  O55  1  0.29670900  0.96863200  0.41378200  1
  O  O56  1  0.79670900  0.03136800  0.08621800  1
  O  O57  1  0.70329100  0.03136800  0.58621800  1
  O  O58  1  0.09245700  0.66145500  0.77901900  1
  O  O59  1  0.40754300  0.66145500  0.27901900  1
  O  O60  1  0.90754300  0.33854500  0.22098100  1
  O  O61  1  0.59245700  0.33854500  0.72098100  1
  O  O62  1  0.72489400  0.59764800  0.04429200  1
  O  O63  1  0.77510600  0.59764800  0.54429200  1
  O  O64  1  0.27510600  0.40235200  0.95570800  1
  O  O65  1  0.22489400  0.40235200  0.45570800  1
  O  O66  1  0.98399500  0.73816700  0.07181000  1
  O  O67  1  0.51600500  0.73816700  0.57181000  1
  O  O68  1  0.01600500  0.26183300  0.92819000  1
  O  O69  1  0.48399500  0.26183300  0.42819000  1
  O  O70  1  0.64135200  0.82812300  0.02595500  1
  O  O71  1  0.85864800  0.82812300  0.52595500  1
  O  O72  1  0.35864800  0.17187700  0.97404500  1
  O  O73  1  0.14135200  0.17187700  0.47404500  1
  O  O74  1  0.31110500  0.50611500  0.14281100  1
  O  O75  1  0.18889500  0.50611500  0.64281100  1
  O  O76  1  0.68889500  0.49388500  0.85718900  1
  O  O77  1  0.81110500  0.49388500  0.35718900  1
  O  O78  1  0.82976600  0.82634500  0.85675100  1
  O  O79  1  0.67023400  0.82634500  0.35675100  1
  O  O80  1  0.17023400  0.17365500  0.14324900  1
  O  O81  1  0.32976600  0.17365500  0.64324900  1
