# generated using pymatgen
data_MgH18C4SN8O9
_symmetry_space_group_name_H-M   'P 1'
_cell_length_a   14.87309100
_cell_length_b   9.42091900
_cell_length_c   14.34631030
_cell_angle_alpha   52.32409663
_cell_angle_beta   90.00000000
_cell_angle_gamma   90.00000000
_symmetry_Int_Tables_number   1
_chemical_formula_structural   MgH18C4SN8O9
_chemical_formula_sum   'Mg4 H72 C16 S4 N32 O36'
_cell_volume   1591.01775694
_cell_formula_units_Z   4
loop_
 _symmetry_equiv_pos_site_id
 _symmetry_equiv_pos_as_xyz
  1  'x, y, z'
loop_
 _atom_site_type_symbol
 _atom_site_label
 _atom_site_symmetry_multiplicity
 _atom_site_fract_x
 _atom_site_fract_y
 _atom_site_fract_z
 _atom_site_occupancy
  Mg  Mg0  1  0.82428300  0.71738600  0.16100700  1
  Mg  Mg1  1  0.67571700  0.71738600  0.66100700  1
  Mg  Mg2  1  0.17571700  0.28261400  0.83899300  1
  Mg  Mg3  1  0.32428300  0.28261400  0.33899300  1
  H  H4  1  0.99556900  0.82048200  0.11129200  1
  H  H5  1  0.50443100  0.82048200  0.61129200  1
  H  H6  1  0.00443100  0.17951800  0.88870800  1
  H  H7  1  0.49556900  0.17951800  0.38870800  1
  H  H8  1  0.97881000  0.78180300  0.01957600  1
  H  H9  1  0.52119000  0.78180300  0.51957600  1
  H  H10  1  0.02119000  0.21819700  0.98042400  1
  H  H11  1  0.47881000  0.21819700  0.48042400  1
  H  H12  1  0.66403500  0.68228200  0.91139600  1
  H  H13  1  0.83596500  0.68228200  0.41139600  1
  H  H14  1  0.33596500  0.31771800  0.08860400  1
  H  H15  1  0.16403500  0.31771800  0.58860400  1
  H  H16  1  0.68954900  0.76717400  0.98488800  1
  H  H17  1  0.81045100  0.76717400  0.48488800  1
  H  H18  1  0.31045100  0.23282600  0.01511200  1
  H  H19  1  0.18954900  0.23282600  0.51511200  1
  H  H20  1  0.73818200  0.42977200  0.96171300  1
  H  H21  1  0.76181800  0.42977200  0.46171300  1
  H  H22  1  0.26181800  0.57022800  0.03828700  1
  H  H23  1  0.23818200  0.57022800  0.53828700  1
  H  H24  1  0.82625900  0.33783600  0.06534300  1
  H  H25  1  0.67374100  0.33783600  0.56534300  1
  H  H26  1  0.17374100  0.66216400  0.93465700  1
  H  H27  1  0.32625900  0.66216400  0.43465700  1
  H  H28  1  0.07024900  0.44950700  0.42041800  1
  H  H29  1  0.42975100  0.44950700  0.92041800  1
  H  H30  1  0.92975100  0.55049300  0.57958200  1
  H  H31  1  0.57024900  0.55049300  0.07958200  1
  H  H32  1  0.01741900  0.64700200  0.30489100  1
  H  H33  1  0.48258100  0.64700200  0.80489100  1
  H  H34  1  0.98258100  0.35299800  0.69510900  1
  H  H35  1  0.51741900  0.35299800  0.19510900  1
  H  H36  1  0.98560800  0.18052500  0.54690100  1
  H  H37  1  0.51439200  0.18052500  0.04690100  1
  H  H38  1  0.01439200  0.81947500  0.45309900  1
  H  H39  1  0.48560800  0.81947500  0.95309900  1
  H  H40  1  0.87746500  0.17742900  0.50343000  1
  H  H41  1  0.62253500  0.17742900  0.00343000  1
  H  H42  1  0.12253500  0.82257100  0.49657000  1
  H  H43  1  0.37746500  0.82257100  0.99657000  1
  H  H44  1  0.80978100  0.35200100  0.84742800  1
  H  H45  1  0.69021900  0.35200100  0.34742800  1
  H  H46  1  0.19021900  0.64799900  0.15257200  1
  H  H47  1  0.30978100  0.64799900  0.65257200  1
  H  H48  1  0.85642600  0.17806700  0.98256700  1
  H  H49  1  0.64357400  0.17806700  0.48256700  1
  H  H50  1  0.14357400  0.82193300  0.01743300  1
  H  H51  1  0.35642600  0.82193300  0.51743300  1
  H  H52  1  0.69767700  0.29570300  0.76309300  1
  H  H53  1  0.80232300  0.29570300  0.26309300  1
  H  H54  1  0.30232300  0.70429700  0.23690700  1
  H  H55  1  0.19767700  0.70429700  0.73690700  1
  H  H56  1  0.65933000  0.07763500  0.83088500  1
  H  H57  1  0.84067000  0.07763500  0.33088500  1
  H  H58  1  0.34067000  0.92236500  0.16911500  1
  H  H59  1  0.15933000  0.92236500  0.66911500  1
  H  H60  1  0.61096900  0.95129900  0.25421700  1
  H  H61  1  0.88903100  0.95129900  0.75421700  1
  H  H62  1  0.38903100  0.04870100  0.74578300  1
  H  H63  1  0.11096900  0.04870100  0.24578300  1
  H  H64  1  0.72054100  0.93159200  0.21845500  1
  H  H65  1  0.77945900  0.93159200  0.71845500  1
  H  H66  1  0.27945900  0.06840800  0.78154500  1
  H  H67  1  0.22054100  0.06840800  0.28154500  1
  H  H68  1  0.50660100  0.72382700  0.30902400  1
  H  H69  1  0.99339900  0.72382700  0.80902400  1
  H  H70  1  0.49339900  0.27617300  0.69097600  1
  H  H71  1  0.00660100  0.27617300  0.19097600  1
  H  H72  1  0.53832400  0.54886800  0.30484100  1
  H  H73  1  0.96167600  0.54886800  0.80484100  1
  H  H74  1  0.46167600  0.45113200  0.69515900  1
  H  H75  1  0.03832400  0.45113200  0.19515900  1
  C  C76  1  0.75616000  0.54186000  0.04572700  1
  C  C77  1  0.74384000  0.54186000  0.54572700  1
  C  C78  1  0.24384000  0.45814000  0.95427300  1
  C  C79  1  0.25616000  0.45814000  0.45427300  1
  C  C80  1  0.93691400  0.42192900  0.39276200  1
  C  C81  1  0.56308600  0.42192900  0.89276200  1
  C  C82  1  0.06308600  0.57807100  0.60723800  1
  C  C83  1  0.43691400  0.57807100  0.10723800  1
  C  C84  1  0.76286500  0.09719500  0.91760600  1
  C  C85  1  0.73713500  0.09719500  0.41760600  1
  C  C86  1  0.23713500  0.90280500  0.08239400  1
  C  C87  1  0.26286500  0.90280500  0.58239400  1
  C  C88  1  0.63711900  0.73411100  0.25401200  1
  C  C89  1  0.86288100  0.73411100  0.75401200  1
  C  C90  1  0.36288100  0.26588900  0.74598800  1
  C  C91  1  0.13711900  0.26588900  0.24598800  1
  S  S92  1  0.93755600  0.98368800  0.20473600  1
  S  S93  1  0.56244400  0.98368800  0.70473600  1
  S  S94  1  0.06244400  0.01631200  0.79526400  1
  S  S95  1  0.43755600  0.01631200  0.29526400  1
  N  N96  1  0.68446300  0.65546500  0.98876700  1
  N  N97  1  0.81553700  0.65546500  0.48876700  1
  N  N98  1  0.31553700  0.34453500  0.01123300  1
  N  N99  1  0.18446300  0.34453500  0.51123300  1
  N  N100  1  0.77204200  0.42124700  0.02691400  1
  N  N101  1  0.72795800  0.42124700  0.52691400  1
  N  N102  1  0.22795800  0.57875300  0.97308600  1
  N  N103  1  0.27204200  0.57875300  0.47308600  1
  N  N104  1  0.01504700  0.51081500  0.36742600  1
  N  N105  1  0.48495300  0.51081500  0.86742600  1
  N  N106  1  0.98495300  0.48918500  0.63257400  1
  N  N107  1  0.51504700  0.48918500  0.13257400  1
  N  N108  1  0.93536300  0.24582400  0.48570000  1
  N  N109  1  0.56463700  0.24582400  0.98570000  1
  N  N110  1  0.06463700  0.75417600  0.51430000  1
  N  N111  1  0.43536300  0.75417600  0.01430000  1
  N  N112  1  0.81641500  0.21738900  0.91312000  1
  N  N113  1  0.68358500  0.21738900  0.41312000  1
  N  N114  1  0.18358500  0.78261100  0.08688000  1
  N  N115  1  0.31641500  0.78261100  0.58688000  1
  N  N116  1  0.70609100  0.16070500  0.82693900  1
  N  N117  1  0.79390900  0.16070500  0.32693900  1
  N  N118  1  0.29390900  0.83929500  0.17306100  1
  N  N119  1  0.20609100  0.83929500  0.67306100  1
  N  N120  1  0.65484400  0.89345200  0.23204400  1
  N  N121  1  0.84515600  0.89345200  0.73204400  1
  N  N122  1  0.34515600  0.10654800  0.76795600  1
  N  N123  1  0.15484400  0.10654800  0.26795600  1
  N  N124  1  0.55379600  0.66455600  0.29196700  1
  N  N125  1  0.94620400  0.66455600  0.79196700  1
  N  N126  1  0.44620400  0.33544400  0.70803300  1
  N  N127  1  0.05379600  0.33544400  0.20803300  1
  O  O128  1  0.93814700  0.96357800  0.31577300  1
  O  O129  1  0.56185300  0.96357800  0.81577300  1
  O  O130  1  0.06185300  0.03642200  0.68422700  1
  O  O131  1  0.43814700  0.03642200  0.18422700  1
  O  O132  1  0.85624000  0.88998300  0.20334300  1
  O  O133  1  0.64376000  0.88998300  0.70334300  1
  O  O134  1  0.14376000  0.11001700  0.79665700  1
  O  O135  1  0.35624000  0.11001700  0.29665700  1
  O  O136  1  0.93328000  0.17884200  0.10137200  1
  O  O137  1  0.56672000  0.17884200  0.60137200  1
  O  O138  1  0.06672000  0.82115800  0.89862800  1
  O  O139  1  0.43328000  0.82115800  0.39862800  1
  O  O140  1  0.02092800  0.90462000  0.19531300  1
  O  O141  1  0.47907200  0.90462000  0.69531300  1
  O  O142  1  0.97907200  0.09538000  0.80468700  1
  O  O143  1  0.52092800  0.09538000  0.30468700  1
  O  O144  1  0.95953700  0.74811500  0.09623500  1
  O  O145  1  0.54046300  0.74811500  0.59623500  1
  O  O146  1  0.04046300  0.25188500  0.90376500  1
  O  O147  1  0.45953700  0.25188500  0.40376500  1
  O  O148  1  0.80295400  0.54463800  0.11876800  1
  O  O149  1  0.69704600  0.54463800  0.61876800  1
  O  O150  1  0.19704600  0.45536200  0.88123200  1
  O  O151  1  0.30295400  0.45536200  0.38123200  1
  O  O152  1  0.86564500  0.49779200  0.33188900  1
  O  O153  1  0.63435500  0.49779200  0.83188900  1
  O  O154  1  0.13435500  0.50220800  0.66811100  1
  O  O155  1  0.36564500  0.50220800  0.16811100  1
  O  O156  1  0.76554400  0.92994000  0.00319200  1
  O  O157  1  0.73445600  0.92994000  0.50319200  1
  O  O158  1  0.23445600  0.07006000  0.99680800  1
  O  O159  1  0.26554400  0.07006000  0.49680800  1
  O  O160  1  0.69644800  0.65339100  0.23885600  1
  O  O161  1  0.80355200  0.65339100  0.73885600  1
  O  O162  1  0.30355200  0.34660900  0.76114400  1
  O  O163  1  0.19644800  0.34660900  0.26114400  1
