# generated using pymatgen
data_AlPO4
_symmetry_space_group_name_H-M   'P 1'
_cell_length_a   5.32008000
_cell_length_b   12.84761046
_cell_length_c   12.87865686
_cell_angle_alpha   117.28472916
_cell_angle_beta   90.81361439
_cell_angle_gamma   90.89186687
_symmetry_Int_Tables_number   1
_chemical_formula_structural   AlPO4
_chemical_formula_sum   'Al6 P6 O24'
_cell_volume   782.00175316
_cell_formula_units_Z   6
loop_
 _symmetry_equiv_pos_site_id
 _symmetry_equiv_pos_as_xyz
  1  'x, y, z'
loop_
 _atom_site_type_symbol
 _atom_site_label
 _atom_site_symmetry_multiplicity
 _atom_site_fract_x
 _atom_site_fract_y
 _atom_site_fract_z
 _atom_site_occupancy
  Al  Al0  1  0.73404300  0.84301200  0.92040100  1
  Al  Al1  1  0.26595700  0.15698800  0.07959900  1
  Al  Al2  1  0.73243500  0.01358600  0.36900000  1
  Al  Al3  1  0.26756500  0.98641400  0.63100000  1
  Al  Al4  1  0.73016600  0.36016800  0.87395500  1
  Al  Al5  1  0.26983400  0.63983200  0.12604500  1
  P  P6  1  0.76625600  0.07982400  0.16149400  1
  P  P7  1  0.23374400  0.92017600  0.83850600  1
  P  P8  1  0.76270900  0.63350300  0.98353100  1
  P  P9  1  0.23729100  0.36649700  0.01646900  1
  P  P10  1  0.77286300  0.12983700  0.64100900  1
  P  P11  1  0.22713700  0.87016300  0.35899100  1
  O  O12  1  0.74078900  0.70591200  0.91724300  1
  O  O13  1  0.25921100  0.29408800  0.08275700  1
  O  O14  1  0.75715300  0.08440200  0.28217500  1
  O  O15  1  0.24284700  0.91559800  0.71782500  1
  O  O16  1  0.75234100  0.95062200  0.06670500  1
  O  O17  1  0.24765900  0.04937800  0.93329500  1
  O  O18  1  0.45360400  0.85240000  0.85387900  1
  O  O19  1  0.54639600  0.14760000  0.14612100  1
  O  O20  1  0.01292500  0.13925300  0.15477200  1
  O  O21  1  0.98707500  0.86074700  0.84522800  1
  O  O22  1  0.73742200  0.50367000  0.89171900  1
  O  O23  1  0.26257800  0.49633000  0.10828100  1
  O  O24  1  0.75397100  0.11820400  0.51663000  1
  O  O25  1  0.24602900  0.88179600  0.48337000  1
  O  O26  1  0.01952900  0.65869000  0.04744700  1
  O  O27  1  0.98047100  0.34131000  0.95255300  1
  O  O28  1  0.44365300  0.33449700  0.92468600  1
  O  O29  1  0.55634700  0.66550300  0.07531400  1
  O  O30  1  0.43673900  0.94290700  0.33932300  1
  O  O31  1  0.56326100  0.05709300  0.66067700  1
  O  O32  1  0.02743900  0.08721400  0.66225200  1
  O  O33  1  0.97256100  0.91278600  0.33774800  1
  O  O34  1  0.74991000  0.26039900  0.72607900  1
  O  O35  1  0.25009000  0.73960100  0.27392100  1
