# generated using pymatgen
data_Na2CuH20C12(N2O3)6
_symmetry_space_group_name_H-M   'P 1'
_cell_length_a   6.86170300
_cell_length_b   10.49860720
_cell_length_c   10.54435241
_cell_angle_alpha   117.14777593
_cell_angle_beta   83.99385303
_cell_angle_gamma   108.82543179
_symmetry_Int_Tables_number   1
_chemical_formula_structural   Na2CuH20C12(N2O3)6
_chemical_formula_sum   'Na2 Cu1 H20 C12 N12 O18'
_cell_volume   638.93837496
_cell_formula_units_Z   1
loop_
 _symmetry_equiv_pos_site_id
 _symmetry_equiv_pos_as_xyz
  1  'x, y, z'
loop_
 _atom_site_type_symbol
 _atom_site_label
 _atom_site_symmetry_multiplicity
 _atom_site_fract_x
 _atom_site_fract_y
 _atom_site_fract_z
 _atom_site_occupancy
  Na  Na0  1  0.75734500  0.46386600  0.39708600  1
  Na  Na1  1  0.24265500  0.53613400  0.60291400  1
  Cu  Cu2  1  0.00000000  0.00000000  0.00000000  1
  H  H3  1  0.12225400  0.86315500  0.36732300  1
  H  H4  1  0.87774600  0.13684500  0.63267700  1
  H  H5  1  0.77324900  0.50801100  0.01285600  1
  H  H6  1  0.22675100  0.49198900  0.98714400  1
  H  H7  1  0.69771800  0.88187300  0.56030200  1
  H  H8  1  0.30228200  0.11812700  0.43969800  1
  H  H9  1  0.33684600  0.53298700  0.21227700  1
  H  H10  1  0.66315400  0.46701300  0.78772300  1
  H  H11  1  0.69825100  0.11435700  0.12740700  1
  H  H12  1  0.30174900  0.88564300  0.87259300  1
  H  H13  1  0.68352900  0.97454600  0.16549400  1
  H  H14  1  0.31647100  0.02545400  0.83450600  1
  H  H15  1  0.08268600  0.29490800  0.32294000  1
  H  H16  1  0.91731400  0.70509200  0.67706000  1
  H  H17  1  0.92860000  0.24076700  0.41997100  1
  H  H18  1  0.07140000  0.75923300  0.58002900  1
  H  H19  1  0.42818100  0.18267800  0.18046100  1
  H  H20  1  0.57181900  0.81732200  0.81953900  1
  H  H21  1  0.56067400  0.26901300  0.09657200  1
  H  H22  1  0.43932600  0.73098700  0.90342800  1
  C  C23  1  0.09909800  0.91456100  0.19963300  1
  C  C24  1  0.90090200  0.08543900  0.80036700  1
  C  C25  1  0.94581400  0.67051200  0.19858600  1
  C  C26  1  0.05418600  0.32948800  0.80141400  1
  C  C27  1  0.89512600  0.71021900  0.99575000  1
  C  C28  1  0.10487400  0.28978100  0.00425000  1
  C  C29  1  0.67547800  0.93485800  0.39242800  1
  C  C30  1  0.32452200  0.06514200  0.60757200  1
  C  C31  1  0.51341400  0.69381400  0.39550700  1
  C  C32  1  0.48658600  0.30618600  0.60449300  1
  C  C33  1  0.47110000  0.73434700  0.19191000  1
  C  C34  1  0.52890000  0.26565300  0.80809000  1
  N  N35  1  0.00819900  0.85788400  0.06844600  1
  N  N36  1  0.99180100  0.14211600  0.93155400  1
  N  N37  1  0.06310500  0.81963600  0.26290600  1
  N  N38  1  0.93689500  0.18036400  0.73709400  1
  N  N39  1  0.87033400  0.61932200  0.06252200  1
  N  N40  1  0.12966600  0.38067800  0.93747800  1
  N  N41  1  0.59473700  0.87904200  0.25875000  1
  N  N42  1  0.40526300  0.12095800  0.74125000  1
  N  N43  1  0.63684400  0.84040700  0.45727500  1
  N  N44  1  0.36315600  0.15959300  0.54272500  1
  N  N45  1  0.42877400  0.64548900  0.26322900  1
  N  N46  1  0.57122600  0.35451100  0.73677100  1
  O  O47  1  0.20921500  0.04954000  0.26371600  1
  O  O48  1  0.79078500  0.95046000  0.73628400  1
  O  O49  1  0.91015700  0.58839400  0.25871400  1
  O  O50  1  0.08984300  0.41160600  0.74128600  1
  O  O51  1  0.81378800  0.65781800  0.87416600  1
  O  O52  1  0.18621200  0.34218200  0.12583400  1
  O  O53  1  0.78689300  0.06951100  0.46036400  1
  O  O54  1  0.21310700  0.93048900  0.53963600  1
  O  O55  1  0.48250600  0.61036500  0.45443400  1
  O  O56  1  0.51749400  0.38963500  0.54556600  1
  O  O57  1  0.39273000  0.67668600  0.06754500  1
  O  O58  1  0.60727000  0.32331400  0.93245500  1
  O  O59  1  0.74535200  0.02525700  0.10145900  1
  O  O60  1  0.25464800  0.97474300  0.89854100  1
  O  O61  1  0.00381900  0.33126400  0.40748300  1
  O  O62  1  0.99618100  0.66873600  0.59251700  1
  O  O63  1  0.56812000  0.24495500  0.17574100  1
  O  O64  1  0.43188000  0.75504500  0.82425900  1
