# generated using pymatgen
data_VO2
_symmetry_space_group_name_H-M   'P 1'
_cell_length_a   4.87636200
_cell_length_b   6.49662747
_cell_length_c   8.76103920
_cell_angle_alpha   83.38544064
_cell_angle_beta   82.79447848
_cell_angle_gamma   81.91021590
_symmetry_Int_Tables_number   1
_chemical_formula_structural   VO2
_chemical_formula_sum   'V4 O8'
_cell_volume   271.26937186
_cell_formula_units_Z   4
loop_
 _symmetry_equiv_pos_site_id
 _symmetry_equiv_pos_as_xyz
  1  'x, y, z'
loop_
 _atom_site_type_symbol
 _atom_site_label
 _atom_site_symmetry_multiplicity
 _atom_site_fract_x
 _atom_site_fract_y
 _atom_site_fract_z
 _atom_site_occupancy
  V  V0  1  0.97143900  0.17214300  0.98339600  1
  V  V1  1  0.02856100  0.82785700  0.01660400  1
  V  V2  1  0.35723000  0.00968600  0.20016400  1
  V  V3  1  0.64277000  0.99031400  0.79983600  1
  O  O4  1  0.27997100  0.75419500  0.15676600  1
  O  O5  1  0.72002900  0.24580500  0.84323400  1
  O  O6  1  0.29164600  0.01513900  0.38449900  1
  O  O7  1  0.70835400  0.98486100  0.61550100  1
  O  O8  1  0.74140800  0.00541800  0.13259100  1
  O  O9  1  0.25859200  0.99458200  0.86740900  1
  O  O10  1  0.19422500  0.26113000  0.10930800  1
  O  O11  1  0.80577500  0.73887000  0.89069200  1
