# generated using pymatgen
data_VO2
_symmetry_space_group_name_H-M   'P 1'
_cell_length_a   7.72902200
_cell_length_b   8.59806453
_cell_length_c   8.64903466
_cell_angle_alpha   89.82807201
_cell_angle_beta   89.96367771
_cell_angle_gamma   89.93502794
_symmetry_Int_Tables_number   1
_chemical_formula_structural   VO2
_chemical_formula_sum   'V16 O32'
_cell_volume   574.76532569
_cell_formula_units_Z   16
loop_
 _symmetry_equiv_pos_site_id
 _symmetry_equiv_pos_as_xyz
  1  'x, y, z'
loop_
 _atom_site_type_symbol
 _atom_site_label
 _atom_site_symmetry_multiplicity
 _atom_site_fract_x
 _atom_site_fract_y
 _atom_site_fract_z
 _atom_site_occupancy
  V  V0  1  0.62834400  0.46090300  0.25259400  1
  V  V1  1  0.12479400  0.74930800  0.94433300  1
  V  V2  1  0.87412300  0.24007600  0.44990900  1
  V  V3  1  0.37290300  0.96187500  0.75025400  1
  V  V4  1  0.87530000  0.53746500  0.74921400  1
  V  V5  1  0.37587900  0.26062300  0.45242800  1
  V  V6  1  0.12326400  0.44927800  0.24252700  1
  V  V7  1  0.62571700  0.75210700  0.94527600  1
  V  V8  1  0.62370200  0.75809600  0.54764900  1
  V  V9  1  0.12677500  0.04980400  0.24176000  1
  V  V10  1  0.37664800  0.25409000  0.05692300  1
  V  V11  1  0.87337700  0.24017700  0.04883100  1
  V  V12  1  0.37394200  0.55052600  0.75750000  1
  V  V13  1  0.62218600  0.05060300  0.24253300  1
  V  V14  1  0.87795400  0.94355000  0.74864300  1
  V  V15  1  0.12559500  0.74877800  0.53765700  1
  O  O16  1  0.38120900  0.40324300  0.25462700  1
  O  O17  1  0.86935600  0.40151100  0.25238800  1
  O  O18  1  0.88141700  0.75015200  0.59761000  1
  O  O19  1  0.12452200  0.25179900  0.39713400  1
  O  O20  1  0.12420900  0.25232200  0.10047300  1
  O  O21  1  0.13172100  0.90234000  0.74945100  1
  O  O22  1  0.36879900  0.74249200  0.59870700  1
  O  O23  1  0.87461500  0.75280500  0.89862400  1
  O  O24  1  0.63072800  0.59973600  0.74776600  1
  O  O25  1  0.37440700  0.10152500  0.25152700  1
  O  O26  1  0.62488000  0.24567900  0.39902400  1
  O  O27  1  0.61907500  0.90129800  0.74446500  1
  O  O28  1  0.11874500  0.59708100  0.74988100  1
  O  O29  1  0.37567400  0.74656400  0.89748500  1
  O  O30  1  0.87460500  0.10085400  0.25162100  1
  O  O31  1  0.62555900  0.24905500  0.10009000  1
  O  O32  1  0.37449600  0.08398300  0.59318500  1
  O  O33  1  0.87442800  0.41563900  0.59448000  1
  O  O34  1  0.12423800  0.59380500  0.41577100  1
  O  O35  1  0.12533200  0.91146600  0.09998200  1
  O  O36  1  0.37518000  0.41124700  0.90082900  1
  O  O37  1  0.87450500  0.09930700  0.91184800  1
  O  O38  1  0.62403800  0.90299600  0.41339100  1
  O  O39  1  0.62502200  0.58392600  0.09975700  1
  O  O40  1  0.87424000  0.41776100  0.90706800  1
  O  O41  1  0.37546700  0.40456000  0.58710000  1
  O  O42  1  0.37581700  0.08380500  0.90268200  1
  O  O43  1  0.62471400  0.91118900  0.09924900  1
  O  O44  1  0.87483000  0.09804300  0.58901700  1
  O  O45  1  0.12624800  0.90669600  0.41796700  1
  O  O46  1  0.12536100  0.58649200  0.09968000  1
  O  O47  1  0.62605800  0.58337100  0.40909000  1
