# generated using pymatgen
data_Na4H20RuS4(NO9)2
_symmetry_space_group_name_H-M   'P 1'
_cell_length_a   6.58852600
_cell_length_b   9.77226500
_cell_length_c   16.41672721
_cell_angle_alpha   77.08922352
_cell_angle_beta   90.00000000
_cell_angle_gamma   90.00000000
_symmetry_Int_Tables_number   1
_chemical_formula_structural   Na4H20RuS4(NO9)2
_chemical_formula_sum   'Na8 H40 Ru2 S8 N4 O36'
_cell_volume   1030.26654231
_cell_formula_units_Z   2
loop_
 _symmetry_equiv_pos_site_id
 _symmetry_equiv_pos_as_xyz
  1  'x, y, z'
loop_
 _atom_site_type_symbol
 _atom_site_label
 _atom_site_symmetry_multiplicity
 _atom_site_fract_x
 _atom_site_fract_y
 _atom_site_fract_z
 _atom_site_occupancy
  Na  Na0  1  0.09875300  0.96636900  0.73082000  1
  Na  Na1  1  0.59875300  0.03363100  0.76918000  1
  Na  Na2  1  0.90124700  0.03363100  0.26918000  1
  Na  Na3  1  0.40124700  0.96636900  0.23082000  1
  Na  Na4  1  0.80990600  0.39550000  0.80182800  1
  Na  Na5  1  0.30990600  0.60450000  0.69817200  1
  Na  Na6  1  0.19009400  0.60450000  0.19817200  1
  Na  Na7  1  0.69009400  0.39550000  0.30182800  1
  H  H8  1  0.85990800  0.08204400  0.54562400  1
  H  H9  1  0.35990800  0.91795600  0.95437600  1
  H  H10  1  0.14009200  0.91795600  0.45437600  1
  H  H11  1  0.64009200  0.08204400  0.04562400  1
  H  H12  1  0.78340800  0.20993500  0.46813000  1
  H  H13  1  0.28340800  0.79006500  0.03187000  1
  H  H14  1  0.21659200  0.79006500  0.53187000  1
  H  H15  1  0.71659200  0.20993500  0.96813000  1
  H  H16  1  0.87154900  0.05875700  0.44846200  1
  H  H17  1  0.37154900  0.94124300  0.05153800  1
  H  H18  1  0.12845100  0.94124300  0.55153800  1
  H  H19  1  0.62845100  0.05875700  0.94846200  1
  H  H20  1  0.67255400  0.69497300  0.54740000  1
  H  H21  1  0.17255400  0.30502700  0.95260000  1
  H  H22  1  0.32744600  0.30502700  0.45260000  1
  H  H23  1  0.82744600  0.69497300  0.04740000  1
  H  H24  1  0.86237800  0.66272000  0.70541800  1
  H  H25  1  0.36237800  0.33728000  0.79458200  1
  H  H26  1  0.13762200  0.33728000  0.29458200  1
  H  H27  1  0.63762200  0.66272000  0.20541800  1
  H  H28  1  0.95524600  0.67630100  0.79208900  1
  H  H29  1  0.45524600  0.32369900  0.70791100  1
  H  H30  1  0.04475400  0.32369900  0.20791100  1
  H  H31  1  0.54475400  0.67630100  0.29208900  1
  H  H32  1  0.00817900  0.28967200  0.59023400  1
  H  H33  1  0.50817900  0.71032800  0.90976600  1
  H  H34  1  0.99182100  0.71032800  0.40976600  1
  H  H35  1  0.49182100  0.28967200  0.09023400  1
  H  H36  1  0.93204700  0.35010400  0.66135900  1
  H  H37  1  0.43204700  0.64989600  0.83864100  1
  H  H38  1  0.06795300  0.64989600  0.33864100  1
  H  H39  1  0.56795300  0.35010400  0.16135900  1
  H  H40  1  0.89179200  0.39869200  0.97697800  1
  H  H41  1  0.39179200  0.60130800  0.52302200  1
  H  H42  1  0.10820800  0.60130800  0.02302200  1
  H  H43  1  0.60820800  0.39869200  0.47697800  1
  H  H44  1  0.68602500  0.47870400  0.94951200  1
  H  H45  1  0.18602500  0.52129600  0.55048800  1
  H  H46  1  0.31397500  0.52129600  0.05048800  1
  H  H47  1  0.81397500  0.47870400  0.44951200  1
  Ru  Ru48  1  0.50000000  0.00000000  0.50000000  1
  Ru  Ru49  1  0.00000000  0.00000000  0.00000000  1
  S  S50  1  0.59725900  0.86477200  0.63362900  1
  S  S51  1  0.09725900  0.13522800  0.86637100  1
  S  S52  1  0.40274100  0.13522800  0.36637100  1
  S  S53  1  0.90274100  0.86477200  0.13362900  1
  S  S54  1  0.63040500  0.84096900  0.42589200  1
  S  S55  1  0.13040500  0.15903100  0.07410800  1
  S  S56  1  0.36959500  0.15903100  0.57410800  1
  S  S57  1  0.86959500  0.84096900  0.92589200  1
  N  N58  1  0.78775700  0.10209000  0.48889800  1
  N  N59  1  0.28775700  0.89791000  0.01110200  1
  N  N60  1  0.21224300  0.89791000  0.51110200  1
  N  N61  1  0.71224300  0.10209000  0.98889800  1
  O  O62  1  0.77275400  0.93083900  0.66905400  1
  O  O63  1  0.27275400  0.06916100  0.83094600  1
  O  O64  1  0.22724600  0.06916100  0.33094600  1
  O  O65  1  0.72724600  0.93083900  0.16905400  1
  O  O66  1  0.42336000  0.84408900  0.69656800  1
  O  O67  1  0.92336000  0.15591100  0.80343200  1
  O  O68  1  0.57664000  0.15591100  0.30343200  1
  O  O69  1  0.07664000  0.84408900  0.19656800  1
  O  O70  1  0.66563700  0.71290900  0.63290500  1
  O  O71  1  0.16563700  0.28709100  0.86709500  1
  O  O72  1  0.33436300  0.28709100  0.36709500  1
  O  O73  1  0.83436300  0.71290900  0.13290500  1
  O  O74  1  0.64921200  0.68542700  0.48524000  1
  O  O75  1  0.14921200  0.31457300  0.01476000  1
  O  O76  1  0.35078800  0.31457300  0.51476000  1
  O  O77  1  0.85078800  0.68542700  0.98524000  1
  O  O78  1  0.51024100  0.81188900  0.35489200  1
  O  O79  1  0.01024100  0.18811100  0.14510800  1
  O  O80  1  0.48975900  0.18811100  0.64510800  1
  O  O81  1  0.98975900  0.81188900  0.85489200  1
  O  O82  1  0.84537400  0.87814300  0.39825000  1
  O  O83  1  0.34537400  0.12185700  0.10175000  1
  O  O84  1  0.15462600  0.12185700  0.60175000  1
  O  O85  1  0.65462600  0.87814300  0.89825000  1
  O  O86  1  0.96413000  0.61996300  0.74889500  1
  O  O87  1  0.46413000  0.38003700  0.75110500  1
  O  O88  1  0.03587000  0.38003700  0.25110500  1
  O  O89  1  0.53587000  0.61996300  0.24889500  1
  O  O90  1  0.94625400  0.37599200  0.60077600  1
  O  O91  1  0.44625400  0.62400800  0.89922400  1
  O  O92  1  0.05374600  0.62400800  0.39922400  1
  O  O93  1  0.55374600  0.37599200  0.10077600  1
  O  O94  1  0.77740900  0.40637900  0.93774700  1
  O  O95  1  0.27740900  0.59362100  0.56225300  1
  O  O96  1  0.22259100  0.59362100  0.06225300  1
  O  O97  1  0.72259100  0.40637900  0.43774700  1
