# generated using pymatgen
data_Na2B5H3O10
_symmetry_space_group_name_H-M   'P 1'
_cell_length_a   6.62523500
_cell_length_b   11.27941000
_cell_length_c   21.07645144
_cell_angle_alpha   86.23622001
_cell_angle_beta   90.00000000
_cell_angle_gamma   90.00000000
_symmetry_Int_Tables_number   1
_chemical_formula_structural   Na2B5H3O10
_chemical_formula_sum   'Na16 B40 H24 O80'
_cell_volume   1571.61964804
_cell_formula_units_Z   8
loop_
 _symmetry_equiv_pos_site_id
 _symmetry_equiv_pos_as_xyz
  1  'x, y, z'
loop_
 _atom_site_type_symbol
 _atom_site_label
 _atom_site_symmetry_multiplicity
 _atom_site_fract_x
 _atom_site_fract_y
 _atom_site_fract_z
 _atom_site_occupancy
  Na  Na0  1  0.00435000  0.93974200  0.72535700  1
  Na  Na1  1  0.50435000  0.06025800  0.77464300  1
  Na  Na2  1  0.99565000  0.06025800  0.27464300  1
  Na  Na3  1  0.49565000  0.93974200  0.22535700  1
  Na  Na4  1  0.61079100  0.56184600  0.76478700  1
  Na  Na5  1  0.11079100  0.43815400  0.73521300  1
  Na  Na6  1  0.38920900  0.43815400  0.23521300  1
  Na  Na7  1  0.88920900  0.56184600  0.26478700  1
  Na  Na8  1  0.04960700  0.84543100  0.54243800  1
  Na  Na9  1  0.54960700  0.15456900  0.95756200  1
  Na  Na10  1  0.95039300  0.15456900  0.45756200  1
  Na  Na11  1  0.45039300  0.84543100  0.04243800  1
  Na  Na12  1  0.34992900  0.52926400  0.59595200  1
  Na  Na13  1  0.84992900  0.47073600  0.90404800  1
  Na  Na14  1  0.65007100  0.47073600  0.40404800  1
  Na  Na15  1  0.15007100  0.52926400  0.09595200  1
  B  B16  1  0.28756200  0.74146200  0.66346000  1
  B  B17  1  0.78756200  0.25853800  0.83654000  1
  B  B18  1  0.71243800  0.25853800  0.33654000  1
  B  B19  1  0.21243800  0.74146200  0.16346000  1
  B  B20  1  0.64179900  0.79739800  0.66924100  1
  B  B21  1  0.14179900  0.20260200  0.83075900  1
  B  B22  1  0.35820100  0.20260200  0.33075900  1
  B  B23  1  0.85820100  0.79739800  0.16924100  1
  B  B24  1  0.38765900  0.95771900  0.64496000  1
  B  B25  1  0.88765900  0.04228100  0.85504000  1
  B  B26  1  0.61234100  0.04228100  0.35504000  1
  B  B27  1  0.11234100  0.95771900  0.14496000  1
  B  B28  1  0.33370500  0.11005000  0.55375600  1
  B  B29  1  0.83370500  0.88995000  0.94624400  1
  B  B30  1  0.66629500  0.88995000  0.44624400  1
  B  B31  1  0.16629500  0.11005000  0.05375600  1
  B  B32  1  0.21548800  0.16045700  0.66108700  1
  B  B33  1  0.71548800  0.83954300  0.83891300  1
  B  B34  1  0.78451200  0.83954300  0.33891300  1
  B  B35  1  0.28451200  0.16045700  0.16108700  1
  B  B36  1  0.50259900  0.29621100  0.68483300  1
  B  B37  1  0.00259900  0.70378900  0.81516700  1
  B  B38  1  0.49740100  0.70378900  0.31516700  1
  B  B39  1  0.99740100  0.29621100  0.18483300  1
  B  B40  1  0.85401200  0.23866800  0.67322000  1
  B  B41  1  0.35401200  0.76133200  0.82678000  1
  B  B42  1  0.14598800  0.76133200  0.32678000  1
  B  B43  1  0.64598800  0.23866800  0.17322000  1
  B  B44  1  0.75533700  0.45120900  0.64594600  1
  B  B45  1  0.25533700  0.54879100  0.85405400  1
  B  B46  1  0.24466300  0.54879100  0.35405400  1
  B  B47  1  0.74466300  0.45120900  0.14594600  1
  B  B48  1  0.81411900  0.57758400  0.54555900  1
  B  B49  1  0.31411900  0.42241600  0.95444100  1
  B  B50  1  0.18588100  0.42241600  0.45444100  1
  B  B51  1  0.68588100  0.57758400  0.04555900  1
  B  B52  1  0.93007300  0.65344000  0.64923300  1
  B  B53  1  0.43007300  0.34656000  0.85076700  1
  B  B54  1  0.06992700  0.34656000  0.35076700  1
  B  B55  1  0.56992700  0.65344000  0.14923300  1
  H  H56  1  0.31331700  0.63837400  0.48023800  1
  H  H57  1  0.81331700  0.36162600  0.01976200  1
  H  H58  1  0.68668300  0.36162600  0.51976200  1
  H  H59  1  0.18668300  0.63837400  0.98023800  1
  H  H60  1  0.46215000  0.72990400  0.50970700  1
  H  H61  1  0.96215000  0.27009600  0.99029300  1
  H  H62  1  0.53785000  0.27009600  0.49029300  1
  H  H63  1  0.03785000  0.72990400  0.00970700  1
  H  H64  1  0.73156800  0.02653300  0.56855300  1
  H  H65  1  0.23156800  0.97346700  0.93144700  1
  H  H66  1  0.26843200  0.97346700  0.43144700  1
  H  H67  1  0.76843200  0.02653300  0.06855300  1
  H  H68  1  0.92086500  0.06995000  0.60216800  1
  H  H69  1  0.42086500  0.93005000  0.89783200  1
  H  H70  1  0.07913500  0.93005000  0.39783200  1
  H  H71  1  0.57913500  0.06995000  0.10216800  1
  H  H72  1  0.44323000  0.09414200  0.46635000  1
  H  H73  1  0.94323000  0.90585800  0.03365000  1
  H  H74  1  0.55677000  0.90585800  0.53365000  1
  H  H75  1  0.05677000  0.09414200  0.96635000  1
  H  H76  1  0.82361300  0.66862900  0.45789900  1
  H  H77  1  0.32361300  0.33137100  0.04210100  1
  H  H78  1  0.17638700  0.33137100  0.54210100  1
  H  H79  1  0.67638700  0.66862900  0.95789900  1
  O  O80  1  0.15056000  0.65054200  0.66800800  1
  O  O81  1  0.65056000  0.34945800  0.83199200  1
  O  O82  1  0.84944000  0.34945800  0.33199200  1
  O  O83  1  0.34944000  0.65054200  0.16800800  1
  O  O84  1  0.48983800  0.70899500  0.67499300  1
  O  O85  1  0.98983800  0.29100500  0.82500700  1
  O  O86  1  0.51016200  0.29100500  0.32500700  1
  O  O87  1  0.01016200  0.70899500  0.17499300  1
  O  O88  1  0.84002100  0.76683500  0.66734100  1
  O  O89  1  0.34002100  0.23316500  0.83265900  1
  O  O90  1  0.15997900  0.23316500  0.33265900  1
  O  O91  1  0.65997900  0.76683500  0.16734100  1
  O  O92  1  0.23916300  0.85674500  0.64551800  1
  O  O93  1  0.73916300  0.14325500  0.85448200  1
  O  O94  1  0.76083700  0.14325500  0.35448200  1
  O  O95  1  0.26083700  0.85674500  0.14551800  1
  O  O96  1  0.58829400  0.91522600  0.66626500  1
  O  O97  1  0.08829400  0.08477400  0.83373500  1
  O  O98  1  0.41170600  0.08477400  0.33373500  1
  O  O99  1  0.91170600  0.91522600  0.16626500  1
  O  O100  1  0.30892000  0.04850300  0.68289400  1
  O  O101  1  0.80892000  0.95149700  0.81710600  1
  O  O102  1  0.69108000  0.95149700  0.31710600  1
  O  O103  1  0.19108000  0.04850300  0.18289400  1
  O  O104  1  0.41183400  0.00153300  0.57562600  1
  O  O105  1  0.91183400  0.99846700  0.92437400  1
  O  O106  1  0.58816600  0.99846700  0.42437400  1
  O  O107  1  0.08816600  0.00153300  0.07562600  1
  O  O108  1  0.23368500  0.18495600  0.59049000  1
  O  O109  1  0.73368500  0.81504400  0.90951000  1
  O  O110  1  0.76631500  0.81504400  0.40951000  1
  O  O111  1  0.26631500  0.18495600  0.09049000  1
  O  O112  1  0.35628500  0.14806400  0.49002500  1
  O  O113  1  0.85628500  0.85193600  0.00997500  1
  O  O114  1  0.64371500  0.85193600  0.50997500  1
  O  O115  1  0.14371500  0.14806400  0.99002500  1
  O  O116  1  0.99436800  0.14915400  0.67692700  1
  O  O117  1  0.49436800  0.85084600  0.82307300  1
  O  O118  1  0.00563200  0.85084600  0.32307300  1
  O  O119  1  0.50563200  0.14915400  0.17692700  1
  O  O120  1  0.30416700  0.26433400  0.69078000  1
  O  O121  1  0.80416700  0.73566600  0.80922000  1
  O  O122  1  0.69583300  0.73566600  0.30922000  1
  O  O123  1  0.19583300  0.26433400  0.19078000  1
  O  O124  1  0.65449000  0.20904600  0.69053200  1
  O  O125  1  0.15449000  0.79095400  0.80946800  1
  O  O126  1  0.34551000  0.79095400  0.30946800  1
  O  O127  1  0.84551000  0.20904600  0.19053200  1
  O  O128  1  0.55259700  0.41441000  0.67322600  1
  O  O129  1  0.05259700  0.58559000  0.82677400  1
  O  O130  1  0.44740300  0.58559000  0.32677400  1
  O  O131  1  0.94740300  0.41441000  0.17322600  1
  O  O132  1  0.90165000  0.35219700  0.65312400  1
  O  O133  1  0.40165000  0.64780300  0.84687600  1
  O  O134  1  0.09835000  0.64780300  0.34687600  1
  O  O135  1  0.59835000  0.35219700  0.15312400  1
  O  O136  1  0.83410300  0.54912000  0.67940200  1
  O  O137  1  0.33410300  0.45088000  0.82059800  1
  O  O138  1  0.16589700  0.45088000  0.32059800  1
  O  O139  1  0.66589700  0.54912000  0.17940200  1
  O  O140  1  0.71908100  0.48070900  0.57629100  1
  O  O141  1  0.21908100  0.51929100  0.92370900  1
  O  O142  1  0.28091900  0.51929100  0.42370900  1
  O  O143  1  0.78091900  0.48070900  0.07629100  1
  O  O144  1  0.78926700  0.59101400  0.47994900  1
  O  O145  1  0.28926700  0.40898600  0.02005100  1
  O  O146  1  0.21073300  0.40898600  0.52005100  1
  O  O147  1  0.71073300  0.59101400  0.97994900  1
  O  O148  1  0.92568000  0.65485500  0.57820500  1
  O  O149  1  0.42568000  0.34514500  0.92179500  1
  O  O150  1  0.07432000  0.34514500  0.42179500  1
  O  O151  1  0.57432000  0.65485500  0.07820500  1
  O  O152  1  0.33327200  0.68720200  0.51706400  1
  O  O153  1  0.83327200  0.31279800  0.98293600  1
  O  O154  1  0.66672800  0.31279800  0.48293600  1
  O  O155  1  0.16672800  0.68720200  0.01706400  1
  O  O156  1  0.87596500  0.03994900  0.56156200  1
  O  O157  1  0.37596500  0.96005100  0.93843800  1
  O  O158  1  0.12403500  0.96005100  0.43843800  1
  O  O159  1  0.62403500  0.03994900  0.06156200  1
