# generated using pymatgen
data_Ca2Y2Si4H2CO16
_symmetry_space_group_name_H-M   'P 1'
_cell_length_a   6.82682600
_cell_length_b   13.13378400
_cell_length_c   14.43735100
_cell_angle_alpha   90.00000000
_cell_angle_beta   90.00000000
_cell_angle_gamma   90.00000000
_symmetry_Int_Tables_number   1
_chemical_formula_structural   Ca2Y2Si4H2CO16
_chemical_formula_sum   'Ca8 Y8 Si16 H8 C4 O64'
_cell_volume   1294.48260402
_cell_formula_units_Z   4
loop_
 _symmetry_equiv_pos_site_id
 _symmetry_equiv_pos_as_xyz
  1  'x, y, z'
loop_
 _atom_site_type_symbol
 _atom_site_label
 _atom_site_symmetry_multiplicity
 _atom_site_fract_x
 _atom_site_fract_y
 _atom_site_fract_z
 _atom_site_occupancy
  Ca  Ca0  1  0.19722800  0.07857000  0.04823900  1
  Ca  Ca1  1  0.30277200  0.42143000  0.54823900  1
  Ca  Ca2  1  0.80277200  0.57856900  0.95176100  1
  Ca  Ca3  1  0.69722800  0.92143100  0.45176100  1
  Ca  Ca4  1  0.80277200  0.92143100  0.95176100  1
  Ca  Ca5  1  0.69722800  0.57856900  0.45176100  1
  Ca  Ca6  1  0.19722800  0.42143000  0.04823900  1
  Ca  Ca7  1  0.30277200  0.07857000  0.54823900  1
  Y  Y8  1  0.38857300  0.05690200  0.28010900  1
  Y  Y9  1  0.11142700  0.44309800  0.78010900  1
  Y  Y10  1  0.61142700  0.55690200  0.71989100  1
  Y  Y11  1  0.88857300  0.94309800  0.21989100  1
  Y  Y12  1  0.61142700  0.94309800  0.71989100  1
  Y  Y13  1  0.88857300  0.55690200  0.21989100  1
  Y  Y14  1  0.38857300  0.44309800  0.28010900  1
  Y  Y15  1  0.11142700  0.05690200  0.78010900  1
  Si  Si16  1  0.88856400  0.13041300  0.35311300  1
  Si  Si17  1  0.61143600  0.36958700  0.85311300  1
  Si  Si18  1  0.11143600  0.63041300  0.64688700  1
  Si  Si19  1  0.38856400  0.86958700  0.14688700  1
  Si  Si20  1  0.11143600  0.86958700  0.64688700  1
  Si  Si21  1  0.38856400  0.63041300  0.14688700  1
  Si  Si22  1  0.88856400  0.36958700  0.35311300  1
  Si  Si23  1  0.61143600  0.13041300  0.85311300  1
  Si  Si24  1  0.66037700  0.13093000  0.06964400  1
  Si  Si25  1  0.83962300  0.36907000  0.56964400  1
  Si  Si26  1  0.33962300  0.63093000  0.93035600  1
  Si  Si27  1  0.16037700  0.86907000  0.43035600  1
  Si  Si28  1  0.33962300  0.86907000  0.93035600  1
  Si  Si29  1  0.16037700  0.63093000  0.43035600  1
  Si  Si30  1  0.66037700  0.36907000  0.06964400  1
  Si  Si31  1  0.83962300  0.13093000  0.56964400  1
  H  H32  1  0.17997200  0.25000000  0.18359000  1
  H  H33  1  0.32002800  0.25000000  0.68359000  1
  H  H34  1  0.82002800  0.75000000  0.81641000  1
  H  H35  1  0.67997200  0.75000000  0.31641000  1
  H  H36  1  0.98596800  0.25000000  0.12130900  1
  H  H37  1  0.51403200  0.25000000  0.62130900  1
  H  H38  1  0.01403200  0.75000000  0.87869100  1
  H  H39  1  0.48596800  0.75000000  0.37869100  1
  C  C40  1  0.38337800  0.25000000  0.37468200  1
  C  C41  1  0.11662200  0.25000000  0.87468200  1
  C  C42  1  0.61662200  0.75000000  0.62531800  1
  C  C43  1  0.88337800  0.75000000  0.12531800  1
  O  O44  1  0.94227500  0.11449800  0.46484400  1
  O  O45  1  0.55772500  0.38550200  0.96484400  1
  O  O46  1  0.05772500  0.61449800  0.53515600  1
  O  O47  1  0.44227500  0.88550200  0.03515600  1
  O  O48  1  0.05772500  0.88550200  0.53515600  1
  O  O49  1  0.44227500  0.61449800  0.03515600  1
  O  O50  1  0.94227500  0.38550200  0.46484400  1
  O  O51  1  0.55772500  0.11449800  0.96484400  1
  O  O52  1  0.70634400  0.05331100  0.32944200  1
  O  O53  1  0.79365600  0.44668900  0.82944200  1
  O  O54  1  0.29365600  0.55331100  0.67055800  1
  O  O55  1  0.20634400  0.94668900  0.17055800  1
  O  O56  1  0.29365600  0.94668900  0.67055800  1
  O  O57  1  0.20634400  0.55331100  0.17055800  1
  O  O58  1  0.70634400  0.44668900  0.32944200  1
  O  O59  1  0.79365600  0.05331100  0.82944200  1
  O  O60  1  0.06223500  0.09369400  0.28447600  1
  O  O61  1  0.43776500  0.40630600  0.78447600  1
  O  O62  1  0.93776500  0.59369400  0.71552400  1
  O  O63  1  0.56223500  0.90630600  0.21552400  1
  O  O64  1  0.93776500  0.90630600  0.71552400  1
  O  O65  1  0.56223500  0.59369400  0.21552400  1
  O  O66  1  0.06223500  0.40630600  0.28447600  1
  O  O67  1  0.43776500  0.09369400  0.78447600  1
  O  O68  1  0.82887300  0.25000000  0.33818400  1
  O  O69  1  0.67112700  0.25000000  0.83818400  1
  O  O70  1  0.17112700  0.75000000  0.66181600  1
  O  O71  1  0.32887300  0.75000000  0.16181600  1
  O  O72  1  0.84612100  0.05307100  0.08088600  1
  O  O73  1  0.65387900  0.44692900  0.58088600  1
  O  O74  1  0.15387900  0.55307100  0.91911400  1
  O  O75  1  0.34612100  0.94692900  0.41911400  1
  O  O76  1  0.15387900  0.94692900  0.91911400  1
  O  O77  1  0.34612100  0.55307100  0.41911400  1
  O  O78  1  0.84612100  0.44692900  0.08088600  1
  O  O79  1  0.65387900  0.05307100  0.58088600  1
  O  O80  1  0.47786900  0.11021100  0.13779200  1
  O  O81  1  0.02213100  0.38978900  0.63779200  1
  O  O82  1  0.52213100  0.61021100  0.86220800  1
  O  O83  1  0.97786900  0.88978900  0.36220800  1
  O  O84  1  0.52213100  0.88978900  0.86220800  1
  O  O85  1  0.97786900  0.61021100  0.36220800  1
  O  O86  1  0.47786900  0.38978900  0.13779200  1
  O  O87  1  0.02213100  0.11021100  0.63779200  1
  O  O88  1  0.74410300  0.25000000  0.07673300  1
  O  O89  1  0.75589700  0.25000000  0.57673300  1
  O  O90  1  0.25589700  0.75000000  0.92326700  1
  O  O91  1  0.24410300  0.75000000  0.42326700  1
  O  O92  1  0.38331900  0.16383600  0.41737500  1
  O  O93  1  0.11668100  0.33616400  0.91737500  1
  O  O94  1  0.61668100  0.66383600  0.58262500  1
  O  O95  1  0.88331900  0.83616400  0.08262500  1
  O  O96  1  0.61668100  0.83616400  0.58262500  1
  O  O97  1  0.88331900  0.66383600  0.08262500  1
  O  O98  1  0.38331900  0.33616400  0.41737500  1
  O  O99  1  0.11668100  0.16383600  0.91737500  1
  O  O100  1  0.38558800  0.25000000  0.28487800  1
  O  O101  1  0.11441200  0.25000000  0.78487800  1
  O  O102  1  0.61441200  0.75000000  0.71512200  1
  O  O103  1  0.88558800  0.75000000  0.21512200  1
  O  O104  1  0.13143300  0.25000000  0.11929600  1
  O  O105  1  0.36856700  0.25000000  0.61929600  1
  O  O106  1  0.86856700  0.75000000  0.88070400  1
  O  O107  1  0.63143300  0.75000000  0.38070400  1
