# generated using pymatgen
data_Na2PH5O6
_symmetry_space_group_name_H-M   'P 1'
_cell_length_a   6.58525500
_cell_length_b   10.38825700
_cell_length_c   17.08741900
_cell_angle_alpha   90.00000000
_cell_angle_beta   90.00000000
_cell_angle_gamma   90.00000000
_symmetry_Int_Tables_number   1
_chemical_formula_structural   Na2PH5O6
_chemical_formula_sum   'Na16 P8 H40 O48'
_cell_volume   1168.93873742
_cell_formula_units_Z   8
loop_
 _symmetry_equiv_pos_site_id
 _symmetry_equiv_pos_as_xyz
  1  'x, y, z'
loop_
 _atom_site_type_symbol
 _atom_site_label
 _atom_site_symmetry_multiplicity
 _atom_site_fract_x
 _atom_site_fract_y
 _atom_site_fract_z
 _atom_site_occupancy
  Na  Na0  1  0.32716400  0.76768000  0.27065500  1
  Na  Na1  1  0.67283600  0.73232000  0.77065500  1
  Na  Na2  1  0.17283600  0.26768000  0.72934500  1
  Na  Na3  1  0.82716400  0.23232000  0.22934500  1
  Na  Na4  1  0.67283600  0.23232000  0.72934500  1
  Na  Na5  1  0.32716400  0.26768000  0.22934500  1
  Na  Na6  1  0.82716400  0.73232000  0.27065500  1
  Na  Na7  1  0.17283600  0.76768000  0.77065500  1
  Na  Na8  1  0.14243600  0.84751000  0.49944400  1
  Na  Na9  1  0.85756400  0.65249000  0.99944400  1
  Na  Na10  1  0.35756400  0.34751000  0.50055600  1
  Na  Na11  1  0.64243600  0.15249000  0.00055600  1
  Na  Na12  1  0.85756400  0.15249000  0.50055600  1
  Na  Na13  1  0.14243600  0.34751000  0.00055600  1
  Na  Na14  1  0.64243600  0.65249000  0.49944400  1
  Na  Na15  1  0.35756400  0.84751000  0.99944400  1
  P  P16  1  0.12097900  0.51795300  0.16155700  1
  P  P17  1  0.87902100  0.98204700  0.66155700  1
  P  P18  1  0.37902100  0.01795300  0.83844300  1
  P  P19  1  0.62097900  0.48204700  0.33844300  1
  P  P20  1  0.87902100  0.48204700  0.83844300  1
  P  P21  1  0.12097900  0.01795300  0.33844300  1
  P  P22  1  0.62097900  0.98204700  0.16155700  1
  P  P23  1  0.37902100  0.51795300  0.66155700  1
  H  H24  1  0.97662500  0.89272200  0.08685900  1
  H  H25  1  0.02337500  0.60727800  0.58685900  1
  H  H26  1  0.52337500  0.39272200  0.91314100  1
  H  H27  1  0.47662500  0.10727800  0.41314100  1
  H  H28  1  0.02337500  0.10727800  0.91314100  1
  H  H29  1  0.97662500  0.39272200  0.41314100  1
  H  H30  1  0.47662500  0.60727800  0.08685900  1
  H  H31  1  0.52337500  0.89272200  0.58685900  1
  H  H32  1  0.07234700  0.76109500  0.11382700  1
  H  H33  1  0.92765300  0.73890500  0.61382700  1
  H  H34  1  0.42765300  0.26109500  0.88617300  1
  H  H35  1  0.57234700  0.23890500  0.38617300  1
  H  H36  1  0.92765300  0.23890500  0.88617300  1
  H  H37  1  0.07234700  0.26109500  0.38617300  1
  H  H38  1  0.57234700  0.73890500  0.11382700  1
  H  H39  1  0.42765300  0.76109500  0.61382700  1
  H  H40  1  0.29281100  0.61374800  0.40146400  1
  H  H41  1  0.70718900  0.88625200  0.90146400  1
  H  H42  1  0.20718900  0.11374800  0.59853600  1
  H  H43  1  0.79281100  0.38625200  0.09853600  1
  H  H44  1  0.70718900  0.38625200  0.59853600  1
  H  H45  1  0.29281100  0.11374800  0.09853600  1
  H  H46  1  0.79281100  0.88625200  0.40146400  1
  H  H47  1  0.20718900  0.61374800  0.90146400  1
  H  H48  1  0.05767700  0.62720500  0.38813900  1
  H  H49  1  0.94232300  0.87279500  0.88813900  1
  H  H50  1  0.44232300  0.12720500  0.61186100  1
  H  H51  1  0.55767700  0.37279500  0.11186100  1
  H  H52  1  0.94232300  0.37279500  0.61186100  1
  H  H53  1  0.05767700  0.12720500  0.11186100  1
  H  H54  1  0.55767700  0.87279500  0.38813900  1
  H  H55  1  0.44232300  0.62720500  0.88813900  1
  H  H56  1  0.97630200  0.46479000  0.27836100  1
  H  H57  1  0.02369800  0.03521000  0.77836100  1
  H  H58  1  0.52369800  0.96479000  0.72163900  1
  H  H59  1  0.47630200  0.53521000  0.22163900  1
  H  H60  1  0.02369800  0.53521000  0.72163900  1
  H  H61  1  0.97630200  0.96479000  0.22163900  1
  H  H62  1  0.47630200  0.03521000  0.27836100  1
  H  H63  1  0.52369800  0.46479000  0.77836100  1
  O  O64  1  0.34835200  0.48148300  0.14906900  1
  O  O65  1  0.65164800  0.01851700  0.64906900  1
  O  O66  1  0.15164800  0.98148300  0.85093100  1
  O  O67  1  0.84835200  0.51851700  0.35093100  1
  O  O68  1  0.65164800  0.51851700  0.85093100  1
  O  O69  1  0.34835200  0.98148300  0.35093100  1
  O  O70  1  0.84835200  0.01851700  0.14906900  1
  O  O71  1  0.15164800  0.48148300  0.64906900  1
  O  O72  1  0.09606800  0.65701600  0.19063500  1
  O  O73  1  0.90393200  0.84298400  0.69063500  1
  O  O74  1  0.40393200  0.15701600  0.80936500  1
  O  O75  1  0.59606800  0.34298400  0.30936500  1
  O  O76  1  0.90393200  0.34298400  0.80936500  1
  O  O77  1  0.09606800  0.15701600  0.30936500  1
  O  O78  1  0.59606800  0.84298400  0.19063500  1
  O  O79  1  0.40393200  0.65701600  0.69063500  1
  O  O80  1  0.99434300  0.48707600  0.08899200  1
  O  O81  1  0.00565700  0.01292400  0.58899200  1
  O  O82  1  0.50565700  0.98707600  0.91100800  1
  O  O83  1  0.49434300  0.51292400  0.41100800  1
  O  O84  1  0.00565700  0.51292400  0.91100800  1
  O  O85  1  0.99434300  0.98707600  0.41100800  1
  O  O86  1  0.49434300  0.01292400  0.08899200  1
  O  O87  1  0.50565700  0.48707600  0.58899200  1
  O  O88  1  0.04835100  0.42224500  0.23175200  1
  O  O89  1  0.95164900  0.07775500  0.73175200  1
  O  O90  1  0.45164900  0.92224500  0.76824800  1
  O  O91  1  0.54835100  0.57775500  0.26824800  1
  O  O92  1  0.95164900  0.57775500  0.76824800  1
  O  O93  1  0.04835100  0.92224500  0.26824800  1
  O  O94  1  0.54835100  0.07775500  0.23175200  1
  O  O95  1  0.45164900  0.42224500  0.73175200  1
  O  O96  1  0.04664700  0.81568800  0.06642600  1
  O  O97  1  0.95335300  0.68431200  0.56642600  1
  O  O98  1  0.45335300  0.31568800  0.93357400  1
  O  O99  1  0.54664700  0.18431200  0.43357400  1
  O  O100  1  0.95335300  0.18431200  0.93357400  1
  O  O101  1  0.04664700  0.31568800  0.43357400  1
  O  O102  1  0.54664700  0.68431200  0.06642600  1
  O  O103  1  0.45335300  0.81568800  0.56642600  1
  O  O104  1  0.18196600  0.67905700  0.39466600  1
  O  O105  1  0.81803400  0.82094300  0.89466600  1
  O  O106  1  0.31803400  0.17905700  0.60533400  1
  O  O107  1  0.68196600  0.32094300  0.10533400  1
  O  O108  1  0.81803400  0.32094300  0.60533400  1
  O  O109  1  0.18196600  0.17905700  0.10533400  1
  O  O110  1  0.68196600  0.82094300  0.39466600  1
  O  O111  1  0.31803400  0.67905700  0.89466600  1
