# generated using pymatgen
data_H13ClO6
_symmetry_space_group_name_H-M   'P 1'
_cell_length_a   6.38380000
_cell_length_b   6.53489400
_cell_length_c   18.04711100
_cell_angle_alpha   90.00000000
_cell_angle_beta   90.00000000
_cell_angle_gamma   90.00000000
_symmetry_Int_Tables_number   1
_chemical_formula_structural   H13ClO6
_chemical_formula_sum   'H52 Cl4 O24'
_cell_volume   752.87956479
_cell_formula_units_Z   4
loop_
 _symmetry_equiv_pos_site_id
 _symmetry_equiv_pos_as_xyz
  1  'x, y, z'
loop_
 _atom_site_type_symbol
 _atom_site_label
 _atom_site_symmetry_multiplicity
 _atom_site_fract_x
 _atom_site_fract_y
 _atom_site_fract_z
 _atom_site_occupancy
  H  H0  1  0.10096300  0.51787200  0.70563200  1
  H  H1  1  0.89903700  0.48212800  0.20563200  1
  H  H2  1  0.10096300  0.98212800  0.29436800  1
  H  H3  1  0.89903700  0.01787200  0.79436800  1
  H  H4  1  0.89903700  0.48212800  0.29436800  1
  H  H5  1  0.10096300  0.51787200  0.79436800  1
  H  H6  1  0.89903700  0.01787200  0.70563200  1
  H  H7  1  0.10096300  0.98212800  0.20563200  1
  H  H8  1  0.27533400  0.28797500  0.75000000  1
  H  H9  1  0.72466600  0.71202500  0.25000000  1
  H  H10  1  0.27533400  0.21202500  0.25000000  1
  H  H11  1  0.72466600  0.78797500  0.75000000  1
  H  H12  1  0.39812600  0.09332500  0.70229500  1
  H  H13  1  0.60187400  0.90667500  0.20229500  1
  H  H14  1  0.39812600  0.40667500  0.29770500  1
  H  H15  1  0.60187400  0.59332500  0.79770500  1
  H  H16  1  0.60187400  0.90667500  0.29770500  1
  H  H17  1  0.39812600  0.09332500  0.79770500  1
  H  H18  1  0.60187400  0.59332500  0.70229500  1
  H  H19  1  0.39812600  0.40667500  0.20229500  1
  H  H20  1  0.62289300  0.55841400  0.58937100  1
  H  H21  1  0.37710700  0.44158600  0.08937100  1
  H  H22  1  0.62289300  0.94158600  0.41062900  1
  H  H23  1  0.37710700  0.05841400  0.91062900  1
  H  H24  1  0.37710700  0.44158600  0.41062900  1
  H  H25  1  0.62289300  0.55841400  0.91062900  1
  H  H26  1  0.37710700  0.05841400  0.58937100  1
  H  H27  1  0.62289300  0.94158600  0.08937100  1
  H  H28  1  0.68244700  0.35061600  0.62961100  1
  H  H29  1  0.31755300  0.64938400  0.12961100  1
  H  H30  1  0.68244700  0.14938400  0.37038900  1
  H  H31  1  0.31755300  0.85061600  0.87038900  1
  H  H32  1  0.31755300  0.64938400  0.37038900  1
  H  H33  1  0.68244700  0.35061600  0.87038900  1
  H  H34  1  0.31755300  0.85061600  0.62961100  1
  H  H35  1  0.68244700  0.14938400  0.12961100  1
  H  H36  1  0.96311800  0.18160900  0.58211400  1
  H  H37  1  0.03688200  0.81839100  0.08211400  1
  H  H38  1  0.96311800  0.31839100  0.41788600  1
  H  H39  1  0.03688200  0.68160900  0.91788600  1
  H  H40  1  0.03688200  0.81839100  0.41788600  1
  H  H41  1  0.96311800  0.18160900  0.91788600  1
  H  H42  1  0.03688200  0.68160900  0.58211400  1
  H  H43  1  0.96311800  0.31839100  0.08211400  1
  H  H44  1  0.77271700  0.03274800  0.58901200  1
  H  H45  1  0.22728300  0.96725200  0.08901200  1
  H  H46  1  0.77271700  0.46725200  0.41098800  1
  H  H47  1  0.22728300  0.53274800  0.91098800  1
  H  H48  1  0.22728300  0.96725200  0.41098800  1
  H  H49  1  0.77271700  0.03274800  0.91098800  1
  H  H50  1  0.22728300  0.53274800  0.58901200  1
  H  H51  1  0.77271700  0.46725200  0.08901200  1
  Cl  Cl52  1  0.22781000  0.25000000  0.50000000  1
  Cl  Cl53  1  0.77219000  0.75000000  0.00000000  1
  Cl  Cl54  1  0.77219000  0.75000000  0.50000000  1
  Cl  Cl55  1  0.22781000  0.25000000  0.00000000  1
  O  O56  1  0.09498300  0.42873700  0.75000000  1
  O  O57  1  0.90501700  0.57126300  0.25000000  1
  O  O58  1  0.09498300  0.07126300  0.25000000  1
  O  O59  1  0.90501700  0.92873700  0.75000000  1
  O  O60  1  0.40078500  0.18372300  0.75000000  1
  O  O61  1  0.59921500  0.81627700  0.25000000  1
  O  O62  1  0.40078500  0.31627700  0.25000000  1
  O  O63  1  0.59921500  0.68372300  0.75000000  1
  O  O64  1  0.41137800  0.97309100  0.86731300  1
  O  O65  1  0.58862200  0.02690900  0.36731300  1
  O  O66  1  0.41137800  0.52690900  0.13268700  1
  O  O67  1  0.58862200  0.47309100  0.63268700  1
  O  O68  1  0.58862200  0.02690900  0.13268700  1
  O  O69  1  0.41137800  0.97309100  0.63268700  1
  O  O70  1  0.58862200  0.47309100  0.86731300  1
  O  O71  1  0.41137800  0.52690900  0.36731300  1
  O  O72  1  0.15183400  0.64111100  0.88409100  1
  O  O73  1  0.84816600  0.35888900  0.38409100  1
  O  O74  1  0.15183400  0.85888900  0.11590900  1
  O  O75  1  0.84816600  0.14111100  0.61590900  1
  O  O76  1  0.84816600  0.35888900  0.11590900  1
  O  O77  1  0.15183400  0.64111100  0.61590900  1
  O  O78  1  0.84816600  0.14111100  0.88409100  1
  O  O79  1  0.15183400  0.85888900  0.38409100  1
