# generated using pymatgen
data_NdSeF
_symmetry_space_group_name_H-M   'P 1'
_cell_length_a   4.04955500
_cell_length_b   4.04955500
_cell_length_c   7.24260000
_cell_angle_alpha   90.00000000
_cell_angle_beta   90.00000000
_cell_angle_gamma   90.00000000
_symmetry_Int_Tables_number   1
_chemical_formula_structural   NdSeF
_chemical_formula_sum   'Nd2 Se2 F2'
_cell_volume   118.77064198
_cell_formula_units_Z   2
loop_
 _symmetry_equiv_pos_site_id
 _symmetry_equiv_pos_as_xyz
  1  'x, y, z'
loop_
 _atom_site_type_symbol
 _atom_site_label
 _atom_site_symmetry_multiplicity
 _atom_site_fract_x
 _atom_site_fract_y
 _atom_site_fract_z
 _atom_site_occupancy
  Nd  Nd0  1  0.00000000  0.50000000  0.78221200  1
  Nd  Nd1  1  0.50000000  0.00000000  0.21778800  1
  Se  Se2  1  0.50000000  0.00000000  0.64402800  1
  Se  Se3  1  0.00000000  0.50000000  0.35597200  1
  F  F4  1  0.00000000  0.00000000  0.00000000  1
  F  F5  1  0.50000000  0.50000000  0.00000000  1
