# generated using pymatgen
data_K2P2H2O7
_symmetry_space_group_name_H-M   'P 1'
_cell_length_a   8.24622800
_cell_length_b   8.31573051
_cell_length_c   11.28488774
_cell_angle_alpha   82.78483957
_cell_angle_beta   84.64635457
_cell_angle_gamma   88.89999144
_symmetry_Int_Tables_number   1
_chemical_formula_structural   K2P2H2O7
_chemical_formula_sum   'K8 P8 H8 O28'
_cell_volume   764.34469699
_cell_formula_units_Z   4
loop_
 _symmetry_equiv_pos_site_id
 _symmetry_equiv_pos_as_xyz
  1  'x, y, z'
loop_
 _atom_site_type_symbol
 _atom_site_label
 _atom_site_symmetry_multiplicity
 _atom_site_fract_x
 _atom_site_fract_y
 _atom_site_fract_z
 _atom_site_occupancy
  K  K0  1  0.24606900  0.70567600  0.94765700  1
  K  K1  1  0.75393100  0.29432400  0.05234300  1
  K  K2  1  0.71330200  0.88110100  0.92518100  1
  K  K3  1  0.28669800  0.11889900  0.07481900  1
  K  K4  1  0.60890900  0.70144900  0.57055100  1
  K  K5  1  0.39109100  0.29855100  0.42944900  1
  K  K6  1  0.81987600  0.22242000  0.54883500  1
  K  K7  1  0.18012400  0.77758000  0.45116500  1
  P  P8  1  0.37244700  0.99604300  0.70378400  1
  P  P9  1  0.62755300  0.00395700  0.29621600  1
  P  P10  1  0.05753100  0.13883800  0.80166200  1
  P  P11  1  0.94246900  0.86116200  0.19833800  1
  P  P12  1  0.21394100  0.45488400  0.71425600  1
  P  P13  1  0.78605900  0.54511600  0.28574400  1
  P  P14  1  0.51803000  0.28695000  0.78285400  1
  P  P15  1  0.48197000  0.71305000  0.21714600  1
  H  H16  1  0.72541900  0.52215500  0.82652400  1
  H  H17  1  0.27458100  0.47784500  0.17347600  1
  H  H18  1  0.89665700  0.55589200  0.86156800  1
  H  H19  1  0.10334300  0.44410800  0.13843200  1
  H  H20  1  0.93785000  0.88110100  0.65720400  1
  H  H21  1  0.06215000  0.11889900  0.34279600  1
  H  H22  1  0.97184800  0.69977200  0.67553000  1
  H  H23  1  0.02815200  0.30022800  0.32447000  1
  O  O24  1  0.22617100  0.03037400  0.80659800  1
  O  O25  1  0.77382900  0.96962600  0.19340200  1
  O  O26  1  0.31129800  0.98325400  0.58507000  1
  O  O27  1  0.68870200  0.01674600  0.41493000  1
  O  O28  1  0.47280700  0.86209000  0.76315800  1
  O  O29  1  0.52719300  0.13791000  0.23684200  1
  O  O30  1  0.93261300  0.04932000  0.74713700  1
  O  O31  1  0.06738700  0.95068000  0.25286300  1
  O  O32  1  0.02135900  0.18931900  0.92387700  1
  O  O33  1  0.97864100  0.81068100  0.07612300  1
  O  O34  1  0.11275400  0.29211900  0.70090000  1
  O  O35  1  0.88724600  0.70788100  0.29910000  1
  O  O36  1  0.29605500  0.51292700  0.59291100  1
  O  O37  1  0.70394500  0.48707300  0.40708900  1
  O  O38  1  0.10336100  0.56988300  0.77760700  1
  O  O39  1  0.89663900  0.43011700  0.22239300  1
  O  O40  1  0.64393300  0.40259500  0.71866300  1
  O  O41  1  0.35606700  0.59740500  0.28133700  1
  O  O42  1  0.54853600  0.19078000  0.90038600  1
  O  O43  1  0.45146400  0.80922000  0.09961400  1
  O  O44  1  0.47468200  0.16824900  0.68533300  1
  O  O45  1  0.52531800  0.83175100  0.31466700  1
  O  O46  1  0.34614700  0.38560000  0.80731800  1
  O  O47  1  0.65385300  0.61440000  0.19268200  1
  O  O48  1  0.78064400  0.56705000  0.88930500  1
  O  O49  1  0.21935600  0.43295000  0.11069500  1
  O  O50  1  0.91917800  0.78171100  0.62075000  1
  O  O51  1  0.08082200  0.21828900  0.37925000  1
