# generated using pymatgen
data_NaH2SO4
_symmetry_space_group_name_H-M   'P 1'
_cell_length_a   6.51440800
_cell_length_b   10.81764900
_cell_length_c   10.85899800
_cell_angle_alpha   90.00000000
_cell_angle_beta   90.00000000
_cell_angle_gamma   90.00000000
_symmetry_Int_Tables_number   1
_chemical_formula_structural   NaH2SO4
_chemical_formula_sum   'Na8 H16 S8 O32'
_cell_volume   765.23987845
_cell_formula_units_Z   8
loop_
 _symmetry_equiv_pos_site_id
 _symmetry_equiv_pos_as_xyz
  1  'x, y, z'
loop_
 _atom_site_type_symbol
 _atom_site_label
 _atom_site_symmetry_multiplicity
 _atom_site_fract_x
 _atom_site_fract_y
 _atom_site_fract_z
 _atom_site_occupancy
  Na  Na0  1  0.56861100  0.65135300  0.06350600  1
  Na  Na1  1  0.06861100  0.84864700  0.43649400  1
  Na  Na2  1  0.43138900  0.34864700  0.56350600  1
  Na  Na3  1  0.93138900  0.15135300  0.93649400  1
  Na  Na4  1  0.43138900  0.34864700  0.93649400  1
  Na  Na5  1  0.93138900  0.15135300  0.56350600  1
  Na  Na6  1  0.56861100  0.65135300  0.43649400  1
  Na  Na7  1  0.06861100  0.84864700  0.06350600  1
  H  H8  1  0.82449900  0.38433000  0.05426500  1
  H  H9  1  0.32449900  0.11567000  0.44573500  1
  H  H10  1  0.17550100  0.61567000  0.55426500  1
  H  H11  1  0.67550100  0.88433000  0.94573500  1
  H  H12  1  0.17550100  0.61567000  0.94573500  1
  H  H13  1  0.67550100  0.88433000  0.55426500  1
  H  H14  1  0.82449900  0.38433000  0.44573500  1
  H  H15  1  0.32449900  0.11567000  0.05426500  1
  H  H16  1  0.72693600  0.26890000  0.12050500  1
  H  H17  1  0.22693600  0.23110000  0.37949500  1
  H  H18  1  0.27306400  0.73110000  0.62050500  1
  H  H19  1  0.77306400  0.76890000  0.87949500  1
  H  H20  1  0.27306400  0.73110000  0.87949500  1
  H  H21  1  0.77306400  0.76890000  0.62050500  1
  H  H22  1  0.72693600  0.26890000  0.37949500  1
  H  H23  1  0.22693600  0.23110000  0.12050500  1
  S  S24  1  0.75108900  0.04249100  0.25000000  1
  S  S25  1  0.25108900  0.45750900  0.25000000  1
  S  S26  1  0.24891100  0.95750900  0.75000000  1
  S  S27  1  0.74891100  0.54249100  0.75000000  1
  S  S28  1  0.49639200  0.90885200  0.25000000  1
  S  S29  1  0.99639200  0.59114800  0.25000000  1
  S  S30  1  0.50360800  0.09114800  0.75000000  1
  S  S31  1  0.00360800  0.40885200  0.75000000  1
  O  O32  1  0.86621200  0.01792400  0.13630400  1
  O  O33  1  0.36621200  0.48207600  0.36369600  1
  O  O34  1  0.13378800  0.98207600  0.63630400  1
  O  O35  1  0.63378800  0.51792400  0.86369600  1
  O  O36  1  0.13378800  0.98207600  0.86369600  1
  O  O37  1  0.63378800  0.51792400  0.63630400  1
  O  O38  1  0.86621200  0.01792400  0.36369600  1
  O  O39  1  0.36621200  0.48207600  0.13630400  1
  O  O40  1  0.64688500  0.16367400  0.25000000  1
  O  O41  1  0.14688500  0.33632600  0.25000000  1
  O  O42  1  0.35311500  0.83632600  0.75000000  1
  O  O43  1  0.85311500  0.66367400  0.75000000  1
  O  O44  1  0.38458000  0.93726000  0.13592000  1
  O  O45  1  0.88458000  0.56274000  0.36408000  1
  O  O46  1  0.61542000  0.06274000  0.63592000  1
  O  O47  1  0.11542000  0.43726000  0.86408000  1
  O  O48  1  0.61542000  0.06274000  0.86408000  1
  O  O49  1  0.11542000  0.43726000  0.63592000  1
  O  O50  1  0.38458000  0.93726000  0.36408000  1
  O  O51  1  0.88458000  0.56274000  0.13592000  1
  O  O52  1  0.59325600  0.78605600  0.25000000  1
  O  O53  1  0.09325600  0.71394400  0.25000000  1
  O  O54  1  0.40674400  0.21394400  0.75000000  1
  O  O55  1  0.90674400  0.28605600  0.75000000  1
  O  O56  1  0.74974000  0.30717400  0.03945800  1
  O  O57  1  0.24974000  0.19282600  0.46054200  1
  O  O58  1  0.25026000  0.69282600  0.53945800  1
  O  O59  1  0.75026000  0.80717400  0.96054200  1
  O  O60  1  0.25026000  0.69282600  0.96054200  1
  O  O61  1  0.75026000  0.80717400  0.53945800  1
  O  O62  1  0.74974000  0.30717400  0.46054200  1
  O  O63  1  0.24974000  0.19282600  0.03945800  1
