# generated using pymatgen
data_Ca2B5H2ClO10
_symmetry_space_group_name_H-M   'P 1'
_cell_length_a   6.33500800
_cell_length_b   6.55040730
_cell_length_c   17.69572184
_cell_angle_alpha   86.14403576
_cell_angle_beta   100.28466079
_cell_angle_gamma   118.81660281
_symmetry_Int_Tables_number   1
_chemical_formula_structural   Ca2B5H2ClO10
_chemical_formula_sum   'Ca6 B15 H6 Cl3 O30'
_cell_volume   632.89658521
_cell_formula_units_Z   3
loop_
 _symmetry_equiv_pos_site_id
 _symmetry_equiv_pos_as_xyz
  1  'x, y, z'
loop_
 _atom_site_type_symbol
 _atom_site_label
 _atom_site_symmetry_multiplicity
 _atom_site_fract_x
 _atom_site_fract_y
 _atom_site_fract_z
 _atom_site_occupancy
  Ca  Ca0  1  0.99678600  0.99663600  0.00141300  1
  Ca  Ca1  1  0.53526200  0.56696700  0.81541400  1
  Ca  Ca2  1  0.33802100  0.00582500  0.66717800  1
  Ca  Ca3  1  0.30164400  0.42982100  0.48431000  1
  Ca  Ca4  1  0.65587600  0.97489500  0.33465400  1
  Ca  Ca5  1  0.18569900  0.53081700  0.15425800  1
  B  B6  1  0.52341900  0.00252200  0.95921600  1
  B  B7  1  0.19592500  0.89572200  0.84943200  1
  B  B8  1  0.62043000  0.11831100  0.82597500  1
  B  B9  1  0.92171900  0.04579800  0.77540300  1
  B  B10  1  0.02052000  0.45079200  0.81844000  1
  B  B11  1  0.86095100  0.01096400  0.62577700  1
  B  B12  1  0.63328100  0.10614000  0.51621500  1
  B  B13  1  0.83463500  0.88175400  0.49292600  1
  B  B14  1  0.20325800  0.94494100  0.44218900  1
  B  B15  1  0.90097000  0.54689700  0.48634300  1
  B  B16  1  0.16903200  0.96149900  0.29262000  1
  B  B17  1  0.84268800  0.85671900  0.18216700  1
  B  B18  1  0.26830400  0.07885000  0.16050700  1
  B  B19  1  0.57112000  0.01142200  0.10922300  1
  B  B20  1  0.66834800  0.41204600  0.15431800  1
  H  H21  1  0.00963200  0.46706300  0.98883400  1
  H  H22  1  0.28219600  0.50885400  0.99643200  1
  H  H23  1  0.87981600  0.56003100  0.66513700  1
  H  H24  1  0.06278300  0.47880900  0.64663700  1
  H  H25  1  0.64604300  0.42525200  0.31957500  1
  H  H26  1  0.92263100  0.49375200  0.31961300  1
  Cl  Cl27  1  0.64671000  0.53056700  0.97410900  1
  Cl  Cl28  1  0.46666300  0.48085800  0.64964900  1
  Cl  Cl29  1  0.30993100  0.49670800  0.31851800  1
  O  O30  1  0.67900400  0.05069300  0.90627100  1
  O  O31  1  0.62774900  0.99319400  0.03301600  1
  O  O32  1  0.28220200  0.94930700  0.93533700  1
  O  O33  1  0.20327600  0.67302100  0.83608000  1
  O  O34  1  0.95736900  0.87965000  0.82946200  1
  O  O35  1  0.37264700  0.07776300  0.80657000  1
  O  O36  1  0.77764500  0.37666100  0.81913700  1
  O  O37  1  0.66482600  0.99155800  0.77003200  1
  O  O38  1  0.09485200  0.29382000  0.80277800  1
  O  O39  1  0.97083200  0.01322100  0.69958000  1
  O  O40  1  0.96984000  0.96781100  0.57186600  1
  O  O41  1  0.67213500  0.06300200  0.60250000  1
  O  O42  1  0.62420700  0.91742900  0.47358800  1
  O  O43  1  0.40866900  0.11890100  0.49651600  1
  O  O44  1  0.86140400  0.32561700  0.50250200  1
  O  O45  1  0.99978600  0.99834800  0.43630100  1
  O  O46  1  0.73360300  0.62221000  0.48820100  1
  O  O47  1  0.28016500  0.96712600  0.36653500  1
  O  O48  1  0.13017700  0.70047400  0.46976000  1
  O  O49  1  0.31914000  0.99770900  0.23909900  1
  O  O50  1  0.92772800  0.90879700  0.26888400  1
  O  O51  1  0.85110500  0.63673700  0.16779000  1
  O  O52  1  0.60359400  0.83973600  0.16157300  1
  O  O53  1  0.02135600  0.04172000  0.14086600  1
  O  O54  1  0.42745000  0.33811500  0.15779500  1
  O  O55  1  0.31448500  0.95908400  0.10286200  1
  O  O56  1  0.74409400  0.25550900  0.13990800  1
  O  O57  1  0.12914700  0.42295500  0.01763300  1
  O  O58  1  0.05140300  0.61158200  0.66316900  1
  O  O59  1  0.76618800  0.36855600  0.32904100  1
