# generated using pymatgen
data_BaSi2(H3O4)2
_symmetry_space_group_name_H-M   'P 1'
_cell_length_a   10.74991500
_cell_length_b   7.93190600
_cell_length_c   8.55640021
_cell_angle_alpha   84.96313926
_cell_angle_beta   90.00000000
_cell_angle_gamma   90.00000000
_symmetry_Int_Tables_number   1
_chemical_formula_structural   BaSi2(H3O4)2
_chemical_formula_sum   'Ba4 Si8 H24 O32'
_cell_volume   726.76393917
_cell_formula_units_Z   4
loop_
 _symmetry_equiv_pos_site_id
 _symmetry_equiv_pos_as_xyz
  1  'x, y, z'
loop_
 _atom_site_type_symbol
 _atom_site_label
 _atom_site_symmetry_multiplicity
 _atom_site_fract_x
 _atom_site_fract_y
 _atom_site_fract_z
 _atom_site_occupancy
  Ba  Ba0  1  0.64741200  0.79683800  0.62583700  1
  Ba  Ba1  1  0.14741200  0.20316200  0.87416300  1
  Ba  Ba2  1  0.35258800  0.20316200  0.37416300  1
  Ba  Ba3  1  0.85258800  0.79683800  0.12583700  1
  Si  Si4  1  0.88246400  0.51026800  0.77430600  1
  Si  Si5  1  0.38246400  0.48973200  0.72569400  1
  Si  Si6  1  0.11753600  0.48973200  0.22569400  1
  Si  Si7  1  0.61753600  0.51026800  0.27430600  1
  Si  Si8  1  0.74495600  0.29959700  0.03206400  1
  Si  Si9  1  0.24495600  0.70040300  0.46793600  1
  Si  Si10  1  0.25504400  0.70040300  0.96793600  1
  Si  Si11  1  0.75504400  0.29959700  0.53206400  1
  H  H12  1  0.91179700  0.88164400  0.80602400  1
  H  H13  1  0.41179700  0.11835600  0.69397600  1
  H  H14  1  0.08820300  0.11835600  0.19397600  1
  H  H15  1  0.58820300  0.88164400  0.30602400  1
  H  H16  1  0.85879400  0.06511300  0.77427700  1
  H  H17  1  0.35879400  0.93488700  0.72572300  1
  H  H18  1  0.14120600  0.93488700  0.22572300  1
  H  H19  1  0.64120600  0.06511300  0.27427700  1
  H  H20  1  0.61257100  0.00464100  0.95337300  1
  H  H21  1  0.11257100  0.99535900  0.54662700  1
  H  H22  1  0.38742900  0.99535900  0.04662700  1
  H  H23  1  0.88742900  0.00464100  0.45337300  1
  H  H24  1  0.53667600  0.83468300  0.99623600  1
  H  H25  1  0.03667600  0.16531700  0.50376400  1
  H  H26  1  0.46332400  0.16531700  0.00376400  1
  H  H27  1  0.96332400  0.83468300  0.49623600  1
  H  H28  1  0.67249000  0.18367500  0.76492500  1
  H  H29  1  0.17249000  0.81632500  0.73507500  1
  H  H30  1  0.32751000  0.81632500  0.23507500  1
  H  H31  1  0.82751000  0.18367500  0.26492500  1
  H  H32  1  0.56595700  0.41311500  0.83969100  1
  H  H33  1  0.06595700  0.58688500  0.66030900  1
  H  H34  1  0.43404300  0.58688500  0.16030900  1
  H  H35  1  0.93404300  0.41311500  0.33969100  1
  O  O36  1  0.78979000  0.46547600  0.62774700  1
  O  O37  1  0.28979000  0.53452400  0.87225300  1
  O  O38  1  0.21021000  0.53452400  0.37225300  1
  O  O39  1  0.71021000  0.46547600  0.12774700  1
  O  O40  1  0.02845200  0.48456500  0.72106300  1
  O  O41  1  0.52845200  0.51543500  0.77893700  1
  O  O42  1  0.97154800  0.51543500  0.27893700  1
  O  O43  1  0.47154800  0.48456500  0.22106300  1
  O  O44  1  0.84700900  0.69439200  0.82138700  1
  O  O45  1  0.34700900  0.30560800  0.67861300  1
  O  O46  1  0.15299100  0.30560800  0.17861300  1
  O  O47  1  0.65299100  0.69439200  0.32138700  1
  O  O48  1  0.86553600  0.35790700  0.91907100  1
  O  O49  1  0.36553600  0.64209300  0.58092900  1
  O  O50  1  0.13446400  0.64209300  0.08092900  1
  O  O51  1  0.63446400  0.35790700  0.41907100  1
  O  O52  1  0.63033100  0.23447400  0.92993800  1
  O  O53  1  0.13033100  0.76552600  0.57006200  1
  O  O54  1  0.36966900  0.76552600  0.07006200  1
  O  O55  1  0.86966900  0.23447400  0.42993800  1
  O  O56  1  0.78922000  0.14466900  0.16357600  1
  O  O57  1  0.28922000  0.85533100  0.33642400  1
  O  O58  1  0.21078000  0.85533100  0.83642400  1
  O  O59  1  0.71078000  0.14466900  0.66357600  1
  O  O60  1  0.61803200  0.87916900  0.95750400  1
  O  O61  1  0.11803200  0.12083100  0.54249600  1
  O  O62  1  0.38196800  0.12083100  0.04249600  1
  O  O63  1  0.88196800  0.87916900  0.45750400  1
  O  O64  1  0.92653700  0.00233700  0.83080000  1
  O  O65  1  0.42653700  0.99766300  0.66920000  1
  O  O66  1  0.07346300  0.99766300  0.16920000  1
  O  O67  1  0.57346300  0.00233700  0.33080000  1
