# generated using pymatgen
data_Na3SiH5O6
_symmetry_space_group_name_H-M   'P 1'
_cell_length_a   9.99363400
_cell_length_b   10.55702500
_cell_length_c   11.53840200
_cell_angle_alpha   90.00000000
_cell_angle_beta   90.00000000
_cell_angle_gamma   90.00000000
_symmetry_Int_Tables_number   1
_chemical_formula_structural   Na3SiH5O6
_chemical_formula_sum   'Na24 Si8 H40 O48'
_cell_volume   1217.33653365
_cell_formula_units_Z   8
loop_
 _symmetry_equiv_pos_site_id
 _symmetry_equiv_pos_as_xyz
  1  'x, y, z'
loop_
 _atom_site_type_symbol
 _atom_site_label
 _atom_site_symmetry_multiplicity
 _atom_site_fract_x
 _atom_site_fract_y
 _atom_site_fract_z
 _atom_site_occupancy
  Na  Na0  1  0.06297500  0.96364000  0.15668800  1
  Na  Na1  1  0.43702500  0.96364000  0.65668800  1
  Na  Na2  1  0.24825200  0.89483600  0.43765000  1
  Na  Na3  1  0.25174800  0.89483600  0.93765000  1
  Na  Na4  1  0.56035800  0.87839400  0.08081600  1
  Na  Na5  1  0.93964200  0.87839400  0.58081600  1
  Na  Na6  1  0.06035800  0.62160600  0.08081600  1
  Na  Na7  1  0.43964200  0.62160600  0.58081600  1
  Na  Na8  1  0.74825200  0.60516400  0.43765000  1
  Na  Na9  1  0.75174800  0.60516400  0.93765000  1
  Na  Na10  1  0.56297500  0.53636000  0.15668800  1
  Na  Na11  1  0.93702500  0.53636000  0.65668800  1
  Na  Na12  1  0.43702500  0.46364000  0.84331200  1
  Na  Na13  1  0.06297500  0.46364000  0.34331200  1
  Na  Na14  1  0.25174800  0.39483600  0.56235000  1
  Na  Na15  1  0.24825200  0.39483600  0.06235000  1
  Na  Na16  1  0.56035800  0.37839400  0.41918400  1
  Na  Na17  1  0.93964200  0.37839400  0.91918400  1
  Na  Na18  1  0.43964200  0.12160600  0.91918400  1
  Na  Na19  1  0.06035800  0.12160600  0.41918400  1
  Na  Na20  1  0.75174800  0.10516400  0.56235000  1
  Na  Na21  1  0.74825200  0.10516400  0.06235000  1
  Na  Na22  1  0.93702500  0.03636000  0.84331200  1
  Na  Na23  1  0.56297500  0.03636000  0.34331200  1
  Si  Si24  1  0.97472300  0.75639700  0.35561000  1
  Si  Si25  1  0.52527700  0.75639700  0.85561000  1
  Si  Si26  1  0.02527700  0.74360300  0.85561000  1
  Si  Si27  1  0.47472300  0.74360300  0.35561000  1
  Si  Si28  1  0.97472300  0.25639700  0.14439000  1
  Si  Si29  1  0.52527700  0.25639700  0.64439000  1
  Si  Si30  1  0.47472300  0.24360300  0.14439000  1
  Si  Si31  1  0.02527700  0.24360300  0.64439000  1
  H  H32  1  0.36760300  0.00702200  0.14267400  1
  H  H33  1  0.13239700  0.00702200  0.64267400  1
  H  H34  1  0.31703000  0.87143300  0.19485600  1
  H  H35  1  0.18297000  0.87143300  0.69485600  1
  H  H36  1  0.89110900  0.85743900  0.04002600  1
  H  H37  1  0.60889100  0.85743900  0.54002600  1
  H  H38  1  0.82165400  0.83730000  0.16380300  1
  H  H39  1  0.67834600  0.83730000  0.66380300  1
  H  H40  1  0.68549700  0.79257200  0.28477900  1
  H  H41  1  0.81450300  0.79257200  0.78477900  1
  H  H42  1  0.18549700  0.70742800  0.28477900  1
  H  H43  1  0.31450300  0.70742800  0.78477900  1
  H  H44  1  0.32165400  0.66270000  0.16380300  1
  H  H45  1  0.17834600  0.66270000  0.66380300  1
  H  H46  1  0.39110900  0.64256100  0.04002600  1
  H  H47  1  0.10889100  0.64256100  0.54002600  1
  H  H48  1  0.81703000  0.62856700  0.19485600  1
  H  H49  1  0.68297000  0.62856700  0.69485600  1
  H  H50  1  0.63239700  0.49297800  0.64267400  1
  H  H51  1  0.86760300  0.49297800  0.14267400  1
  H  H52  1  0.36760300  0.50702200  0.35732600  1
  H  H53  1  0.13239700  0.50702200  0.85732600  1
  H  H54  1  0.31703000  0.37143300  0.30514400  1
  H  H55  1  0.18297000  0.37143300  0.80514400  1
  H  H56  1  0.89110900  0.35743900  0.45997400  1
  H  H57  1  0.60889100  0.35743900  0.95997400  1
  H  H58  1  0.82165400  0.33730000  0.33619700  1
  H  H59  1  0.67834600  0.33730000  0.83619700  1
  H  H60  1  0.68549700  0.29257200  0.21522100  1
  H  H61  1  0.81450300  0.29257200  0.71522100  1
  H  H62  1  0.31450300  0.20742800  0.71522100  1
  H  H63  1  0.18549700  0.20742800  0.21522100  1
  H  H64  1  0.32165400  0.16270000  0.33619700  1
  H  H65  1  0.17834600  0.16270000  0.83619700  1
  H  H66  1  0.10889100  0.14256100  0.95997400  1
  H  H67  1  0.39110900  0.14256100  0.45997400  1
  H  H68  1  0.81703000  0.12856700  0.30514400  1
  H  H69  1  0.68297000  0.12856700  0.80514400  1
  H  H70  1  0.63239700  0.99297800  0.85732600  1
  H  H71  1  0.86760300  0.99297800  0.35732600  1
  O  O72  1  0.29890800  0.93879000  0.13253500  1
  O  O73  1  0.20109200  0.93879000  0.63253500  1
  O  O74  1  0.48179100  0.90506200  0.86914700  1
  O  O75  1  0.01820900  0.90506200  0.36914700  1
  O  O76  1  0.81624000  0.89123200  0.09223500  1
  O  O77  1  0.68376000  0.89123200  0.59223500  1
  O  O78  1  0.46840600  0.81838200  0.48038000  1
  O  O79  1  0.03159400  0.81838200  0.98038000  1
  O  O80  1  0.91126200  0.81975000  0.77224500  1
  O  O81  1  0.58873800  0.81975000  0.27224500  1
  O  O82  1  0.33311600  0.76130200  0.28429600  1
  O  O83  1  0.16688400  0.76130200  0.78429600  1
  O  O84  1  0.83311600  0.73869800  0.28429600  1
  O  O85  1  0.66688400  0.73869800  0.78429600  1
  O  O86  1  0.08873800  0.68025000  0.27224500  1
  O  O87  1  0.41126200  0.68025000  0.77224500  1
  O  O88  1  0.96840600  0.68161800  0.48038000  1
  O  O89  1  0.53159400  0.68161800  0.98038000  1
  O  O90  1  0.31624000  0.60876800  0.09223500  1
  O  O91  1  0.18376000  0.60876800  0.59223500  1
  O  O92  1  0.51820900  0.59493800  0.36914700  1
  O  O93  1  0.98179100  0.59493800  0.86914700  1
  O  O94  1  0.70109200  0.56121000  0.63253500  1
  O  O95  1  0.79890800  0.56121000  0.13253500  1
  O  O96  1  0.29890800  0.43879000  0.36746500  1
  O  O97  1  0.20109200  0.43879000  0.86746500  1
  O  O98  1  0.48179100  0.40506200  0.63085300  1
  O  O99  1  0.01820900  0.40506200  0.13085300  1
  O  O100  1  0.81624000  0.39123200  0.40776500  1
  O  O101  1  0.68376000  0.39123200  0.90776500  1
  O  O102  1  0.46840600  0.31838200  0.01962000  1
  O  O103  1  0.03159400  0.31838200  0.51962000  1
  O  O104  1  0.58873800  0.31975000  0.22775500  1
  O  O105  1  0.91126200  0.31975000  0.72775500  1
  O  O106  1  0.33311600  0.26130200  0.21570400  1
  O  O107  1  0.16688400  0.26130200  0.71570400  1
  O  O108  1  0.83311600  0.23869800  0.21570400  1
  O  O109  1  0.66688400  0.23869800  0.71570400  1
  O  O110  1  0.41126200  0.18025000  0.72775500  1
  O  O111  1  0.08873800  0.18025000  0.22775500  1
  O  O112  1  0.96840600  0.18161800  0.01962000  1
  O  O113  1  0.53159400  0.18161800  0.51962000  1
  O  O114  1  0.31624000  0.10876800  0.40776500  1
  O  O115  1  0.18376000  0.10876800  0.90776500  1
  O  O116  1  0.98179100  0.09493800  0.63085300  1
  O  O117  1  0.51820900  0.09493800  0.13085300  1
  O  O118  1  0.70109200  0.06121000  0.86746500  1
  O  O119  1  0.79890800  0.06121000  0.36746500  1
