# generated using pymatgen
data_SnH4(ClO)2
_symmetry_space_group_name_H-M   'P 1'
_cell_length_a   7.22346900
_cell_length_b   8.99845100
_cell_length_c   9.24928542
_cell_angle_alpha   65.78725957
_cell_angle_beta   90.00000000
_cell_angle_gamma   90.00000000
_symmetry_Int_Tables_number   1
_chemical_formula_structural   SnH4(ClO)2
_chemical_formula_sum   'Sn4 H16 Cl8 O8'
_cell_volume   548.31530865
_cell_formula_units_Z   4
loop_
 _symmetry_equiv_pos_site_id
 _symmetry_equiv_pos_as_xyz
  1  'x, y, z'
loop_
 _atom_site_type_symbol
 _atom_site_label
 _atom_site_symmetry_multiplicity
 _atom_site_fract_x
 _atom_site_fract_y
 _atom_site_fract_z
 _atom_site_occupancy
  Sn  Sn0  1  0.75524300  0.96542800  0.37991000  1
  Sn  Sn1  1  0.25524300  0.53457200  0.62009000  1
  Sn  Sn2  1  0.24475700  0.03457200  0.62009000  1
  Sn  Sn3  1  0.74475700  0.46542800  0.37991000  1
  H  H4  1  0.53019900  0.09436200  0.10160400  1
  H  H5  1  0.03019900  0.40563800  0.89839600  1
  H  H6  1  0.46980100  0.90563800  0.89839600  1
  H  H7  1  0.96980100  0.59436200  0.10160400  1
  H  H8  1  0.70069100  0.01478600  0.04970100  1
  H  H9  1  0.20069100  0.48521400  0.95029900  1
  H  H10  1  0.29930900  0.98521400  0.95029900  1
  H  H11  1  0.79930900  0.51478600  0.04970100  1
  H  H12  1  0.75131800  0.79477400  0.99051400  1
  H  H13  1  0.25131800  0.70522600  0.00948600  1
  H  H14  1  0.24868200  0.20522600  0.00948600  1
  H  H15  1  0.74868200  0.29477400  0.99051400  1
  H  H16  1  0.79127800  0.96197300  0.84363000  1
  H  H17  1  0.29127800  0.53802700  0.15637000  1
  H  H18  1  0.20872200  0.03802700  0.15637000  1
  H  H19  1  0.70872200  0.46197300  0.84363000  1
  Cl  Cl20  1  0.99160200  0.81561700  0.28281600  1
  Cl  Cl21  1  0.49160200  0.68438300  0.71718400  1
  Cl  Cl22  1  0.00839800  0.18438300  0.71718400  1
  Cl  Cl23  1  0.50839800  0.31561700  0.28281600  1
  Cl  Cl24  1  0.00205000  0.19630500  0.30760000  1
  Cl  Cl25  1  0.50205000  0.30369500  0.69240000  1
  Cl  Cl26  1  0.99795000  0.80369500  0.69240000  1
  Cl  Cl27  1  0.49795000  0.69630500  0.30760000  1
  O  O28  1  0.66920200  0.08623400  0.10645300  1
  O  O29  1  0.16920200  0.41376600  0.89354700  1
  O  O30  1  0.33079800  0.91376600  0.89354700  1
  O  O31  1  0.83079800  0.58623400  0.10645300  1
  O  O32  1  0.70427800  0.90766400  0.93234600  1
  O  O33  1  0.20427800  0.59233600  0.06765400  1
  O  O34  1  0.29572200  0.09233600  0.06765400  1
  O  O35  1  0.79572200  0.40766400  0.93234600  1
