# generated using pymatgen
data_Ca5P3HO13
_symmetry_space_group_name_H-M   'P 1'
_cell_length_a   6.93592400
_cell_length_b   9.50280900
_cell_length_c   18.99323079
_cell_angle_alpha   60.00967059
_cell_angle_beta   90.00000000
_cell_angle_gamma   90.00000000
_symmetry_Int_Tables_number   1
_chemical_formula_structural   Ca5P3HO13
_chemical_formula_sum   'Ca20 P12 H4 O52'
_cell_volume   1084.24671672
_cell_formula_units_Z   4
loop_
 _symmetry_equiv_pos_site_id
 _symmetry_equiv_pos_as_xyz
  1  'x, y, z'
loop_
 _atom_site_type_symbol
 _atom_site_label
 _atom_site_symmetry_multiplicity
 _atom_site_fract_x
 _atom_site_fract_y
 _atom_site_fract_z
 _atom_site_occupancy
  Ca  Ca0  1  0.50033000  0.83389700  0.92020100  1
  Ca  Ca1  1  0.00033000  0.16610300  0.57979900  1
  Ca  Ca2  1  0.49967000  0.16610300  0.07979900  1
  Ca  Ca3  1  0.99967000  0.83389700  0.42020100  1
  Ca  Ca4  1  0.99809200  0.83281500  0.91296400  1
  Ca  Ca5  1  0.49809200  0.16718500  0.58703600  1
  Ca  Ca6  1  0.00190800  0.16718500  0.08703600  1
  Ca  Ca7  1  0.50190800  0.83281500  0.41296400  1
  Ca  Ca8  1  0.75348600  0.24687900  0.25321200  1
  Ca  Ca9  1  0.25348600  0.75312100  0.24678800  1
  Ca  Ca10  1  0.24651400  0.75312100  0.74678800  1
  Ca  Ca11  1  0.74651400  0.24687900  0.75321200  1
  Ca  Ca12  1  0.24360000  0.25294800  0.87657900  1
  Ca  Ca13  1  0.74360000  0.74705200  0.62342100  1
  Ca  Ca14  1  0.75640000  0.74705200  0.12342100  1
  Ca  Ca15  1  0.25640000  0.25294800  0.37657900  1
  Ca  Ca16  1  0.25651200  0.49361100  0.12663600  1
  Ca  Ca17  1  0.75651200  0.50638900  0.37336400  1
  Ca  Ca18  1  0.74348800  0.50638900  0.87336400  1
  Ca  Ca19  1  0.24348800  0.49361100  0.62663600  1
  P  P20  1  0.75487400  0.46975600  0.06598500  1
  P  P21  1  0.25487400  0.53024400  0.43401500  1
  P  P22  1  0.24512600  0.53024400  0.93401500  1
  P  P23  1  0.74512600  0.46975600  0.56598500  1
  P  P24  1  0.75547000  0.89813200  0.23504700  1
  P  P25  1  0.25547000  0.10186800  0.26495300  1
  P  P26  1  0.24453000  0.10186800  0.76495300  1
  P  P27  1  0.74453000  0.89813200  0.73504700  1
  P  P28  1  0.25154200  0.86839800  0.05085300  1
  P  P29  1  0.75154200  0.13160200  0.44914700  1
  P  P30  1  0.74845800  0.13160200  0.94914700  1
  P  P31  1  0.24845800  0.86839800  0.55085300  1
  H  H32  1  0.94273000  0.50012900  0.24994600  1
  H  H33  1  0.44273000  0.49987100  0.25005400  1
  H  H34  1  0.05727000  0.49987100  0.75005400  1
  H  H35  1  0.55727000  0.50012900  0.74994600  1
  O  O36  1  0.76002300  0.65659400  0.00784300  1
  O  O37  1  0.26002300  0.34340600  0.49215700  1
  O  O38  1  0.23997700  0.34340600  0.99215700  1
  O  O39  1  0.73997700  0.65659400  0.50784300  1
  O  O40  1  0.26004100  0.17194100  0.17151400  1
  O  O41  1  0.76004100  0.82805900  0.32848600  1
  O  O42  1  0.73995900  0.82805900  0.82848600  1
  O  O43  1  0.23995900  0.17194100  0.67151400  1
  O  O44  1  0.74574400  0.01506000  0.91404300  1
  O  O45  1  0.24574400  0.98494000  0.58595700  1
  O  O46  1  0.25425600  0.98494000  0.08595700  1
  O  O47  1  0.75425600  0.01506000  0.41404300  1
  O  O48  1  0.73664200  0.37829500  0.01711800  1
  O  O49  1  0.23664200  0.62170500  0.48288200  1
  O  O50  1  0.26335800  0.62170500  0.98288200  1
  O  O51  1  0.76335800  0.37829500  0.51711800  1
  O  O52  1  0.74258700  0.08767600  0.18882800  1
  O  O53  1  0.24258700  0.91232400  0.31117200  1
  O  O54  1  0.25741300  0.91232400  0.81117200  1
  O  O55  1  0.75741300  0.08767600  0.68882800  1
  O  O56  1  0.23231100  0.96547500  0.95629100  1
  O  O57  1  0.73231100  0.03452500  0.54370900  1
  O  O58  1  0.76768900  0.03452500  0.04370900  1
  O  O59  1  0.26768900  0.96547500  0.45629100  1
  O  O60  1  0.58188700  0.42149800  0.12552800  1
  O  O61  1  0.08188700  0.57850200  0.37447200  1
  O  O62  1  0.41811300  0.57850200  0.87447200  1
  O  O63  1  0.91811300  0.42149800  0.62552800  1
  O  O64  1  0.57904400  0.83245100  0.20964500  1
  O  O65  1  0.07904400  0.16754900  0.29035500  1
  O  O66  1  0.42095600  0.16754900  0.79035500  1
  O  O67  1  0.92095600  0.83245100  0.70964500  1
  O  O68  1  0.08124200  0.74660800  0.08682600  1
  O  O69  1  0.58124200  0.25339200  0.41317400  1
  O  O70  1  0.91875800  0.25339200  0.91317400  1
  O  O71  1  0.41875800  0.74660800  0.58682600  1
  O  O72  1  0.94162600  0.40687500  0.11779100  1
  O  O73  1  0.44162600  0.59312500  0.38220900  1
  O  O74  1  0.05837400  0.59312500  0.88220900  1
  O  O75  1  0.55837400  0.40687500  0.61779100  1
  O  O76  1  0.93970900  0.85214800  0.20491600  1
  O  O77  1  0.43970900  0.14785200  0.29508400  1
  O  O78  1  0.06029100  0.14785200  0.79508400  1
  O  O79  1  0.56029100  0.85214800  0.70491600  1
  O  O80  1  0.44043500  0.76726900  0.07102000  1
  O  O81  1  0.94043500  0.23273100  0.42898000  1
  O  O82  1  0.55956500  0.23273100  0.92898000  1
  O  O83  1  0.05956500  0.76726900  0.57102000  1
  O  O84  1  0.80103300  0.50088400  0.24975000  1
  O  O85  1  0.30103300  0.49911600  0.25025000  1
  O  O86  1  0.19896700  0.49911600  0.75025000  1
  O  O87  1  0.69896700  0.50088400  0.74975000  1
