# generated using pymatgen
data_CaFe3Si2HO9
_symmetry_space_group_name_H-M   'P 1'
_cell_length_a   8.89644700
_cell_length_b   5.97948500
_cell_length_c   13.10407830
_cell_angle_alpha   89.59877563
_cell_angle_beta   90.00000000
_cell_angle_gamma   90.00000000
_symmetry_Int_Tables_number   1
_chemical_formula_structural   CaFe3Si2HO9
_chemical_formula_sum   'Ca4 Fe12 Si8 H4 O36'
_cell_volume   697.06970322
_cell_formula_units_Z   4
loop_
 _symmetry_equiv_pos_site_id
 _symmetry_equiv_pos_as_xyz
  1  'x, y, z'
loop_
 _atom_site_type_symbol
 _atom_site_label
 _atom_site_symmetry_multiplicity
 _atom_site_fract_x
 _atom_site_fract_y
 _atom_site_fract_z
 _atom_site_occupancy
  Ca  Ca0  1  0.36859400  0.24647600  0.81195800  1
  Ca  Ca1  1  0.86859400  0.75352400  0.68804200  1
  Ca  Ca2  1  0.63140600  0.75352400  0.18804200  1
  Ca  Ca3  1  0.13140600  0.24647600  0.31195800  1
  Fe  Fe4  1  0.04862600  0.99668000  0.88948400  1
  Fe  Fe5  1  0.54862600  0.00332000  0.61051600  1
  Fe  Fe6  1  0.95137400  0.00332000  0.11051600  1
  Fe  Fe7  1  0.45137400  0.99668000  0.38948400  1
  Fe  Fe8  1  0.05182000  0.50260600  0.88936900  1
  Fe  Fe9  1  0.55182000  0.49739400  0.61063100  1
  Fe  Fe10  1  0.94818000  0.49739400  0.11063100  1
  Fe  Fe11  1  0.44818000  0.50260600  0.38936900  1
  Fe  Fe12  1  0.24064400  0.24950000  0.55836400  1
  Fe  Fe13  1  0.74064400  0.75050000  0.94163600  1
  Fe  Fe14  1  0.75935600  0.75050000  0.44163600  1
  Fe  Fe15  1  0.25935600  0.24950000  0.05836400  1
  Si  Si16  1  0.36874100  0.75174500  0.95837100  1
  Si  Si17  1  0.86874100  0.24825500  0.54162900  1
  Si  Si18  1  0.63125900  0.24825500  0.04162900  1
  Si  Si19  1  0.13125900  0.75174500  0.45837100  1
  Si  Si20  1  0.22571600  0.74742800  0.67925500  1
  Si  Si21  1  0.72571600  0.25257200  0.82074500  1
  Si  Si22  1  0.77428400  0.25257200  0.32074500  1
  Si  Si23  1  0.27428400  0.74742800  0.17925500  1
  H  H24  1  0.06537900  0.25945300  0.72565000  1
  H  H25  1  0.56537900  0.74054700  0.77435000  1
  H  H26  1  0.93462100  0.74054700  0.27435000  1
  H  H27  1  0.43462100  0.25945300  0.22565000  1
  O  O28  1  0.46890100  0.27188700  0.51072700  1
  O  O29  1  0.96890100  0.72811300  0.98927300  1
  O  O30  1  0.53109900  0.72811300  0.48927300  1
  O  O31  1  0.03109900  0.27188700  0.01072700  1
  O  O32  1  0.27377800  0.98398100  0.93608800  1
  O  O33  1  0.77377800  0.01601900  0.56391200  1
  O  O34  1  0.72622200  0.01601900  0.06391200  1
  O  O35  1  0.22622200  0.98398100  0.43608800  1
  O  O36  1  0.27275800  0.52016600  0.93379100  1
  O  O37  1  0.77275800  0.47983400  0.56620900  1
  O  O38  1  0.72724200  0.47983400  0.06620900  1
  O  O39  1  0.22724200  0.52016600  0.43379100  1
  O  O40  1  0.10660100  0.73897800  0.77723000  1
  O  O41  1  0.60660100  0.26102200  0.72277000  1
  O  O42  1  0.89339900  0.26102200  0.22277000  1
  O  O43  1  0.39339900  0.73897800  0.27723000  1
  O  O44  1  0.32517000  0.97938400  0.67166100  1
  O  O45  1  0.82517000  0.02061600  0.82833900  1
  O  O46  1  0.67483000  0.02061600  0.32833900  1
  O  O47  1  0.17483000  0.97938400  0.17166100  1
  O  O48  1  0.33151700  0.52069400  0.67005000  1
  O  O49  1  0.83151700  0.47930600  0.82995000  1
  O  O50  1  0.66848300  0.47930600  0.32995000  1
  O  O51  1  0.16848300  0.52069400  0.17005000  1
  O  O52  1  0.09952900  0.74620300  0.58422600  1
  O  O53  1  0.59952900  0.25379700  0.91577400  1
  O  O54  1  0.90047100  0.25379700  0.41577400  1
  O  O55  1  0.40047100  0.74620300  0.08422600  1
  O  O56  1  0.02648800  0.24901700  0.60277400  1
  O  O57  1  0.52648800  0.75098300  0.89722600  1
  O  O58  1  0.97351200  0.75098300  0.39722600  1
  O  O59  1  0.47351200  0.24901700  0.10277400  1
  O  O60  1  0.10922100  0.26098500  0.79624700  1
  O  O61  1  0.60922100  0.73901500  0.70375300  1
  O  O62  1  0.89077900  0.73901500  0.20375300  1
  O  O63  1  0.39077900  0.26098500  0.29624700  1
