# generated using pymatgen
data_H4CSN2
_symmetry_space_group_name_H-M   'P 1'
_cell_length_a   5.49704300
_cell_length_b   7.51884600
_cell_length_c   8.57748400
_cell_angle_alpha   90.00000000
_cell_angle_beta   90.00000000
_cell_angle_gamma   90.00000000
_symmetry_Int_Tables_number   1
_chemical_formula_structural   H4CSN2
_chemical_formula_sum   'H16 C4 S4 N8'
_cell_volume   354.51959179
_cell_formula_units_Z   4
loop_
 _symmetry_equiv_pos_site_id
 _symmetry_equiv_pos_as_xyz
  1  'x, y, z'
loop_
 _atom_site_type_symbol
 _atom_site_label
 _atom_site_symmetry_multiplicity
 _atom_site_fract_x
 _atom_site_fract_y
 _atom_site_fract_z
 _atom_site_occupancy
  H  H0  1  0.25207300  0.63683300  0.13054800  1
  H  H1  1  0.25207300  0.63683300  0.86945200  1
  H  H2  1  0.74792700  0.13683300  0.86945200  1
  H  H3  1  0.74792700  0.13683300  0.13054800  1
  H  H4  1  0.99356300  0.57663400  0.23937500  1
  H  H5  1  0.99356300  0.57663400  0.76062500  1
  H  H6  1  0.00643700  0.07663400  0.76062500  1
  H  H7  1  0.00643700  0.07663400  0.23937500  1
  H  H8  1  0.34894700  0.28248900  0.36960300  1
  H  H9  1  0.34894700  0.28248900  0.63039700  1
  H  H10  1  0.65105300  0.78248900  0.63039700  1
  H  H11  1  0.65105300  0.78248900  0.36960300  1
  H  H12  1  0.57307900  0.39756700  0.26105200  1
  H  H13  1  0.57307900  0.39756700  0.73894800  1
  H  H14  1  0.42692100  0.89756700  0.73894800  1
  H  H15  1  0.42692100  0.89756700  0.26105200  1
  C  C16  1  0.95301100  0.57360000  0.00000000  1
  C  C17  1  0.04698900  0.07360000  0.00000000  1
  C  C18  1  0.61394700  0.40280200  0.50000000  1
  C  C19  1  0.38605300  0.90280200  0.50000000  1
  S  S20  1  0.65410000  0.50627100  0.00000000  1
  S  S21  1  0.34590000  0.00627100  0.00000000  1
  S  S22  1  0.87684100  0.52627300  0.50000000  1
  S  S23  1  0.12315900  0.02627300  0.50000000  1
  N  N24  1  0.07389300  0.60007600  0.13322900  1
  N  N25  1  0.07389300  0.60007600  0.86677100  1
  N  N26  1  0.92610700  0.10007600  0.86677100  1
  N  N27  1  0.92610700  0.10007600  0.13322900  1
  N  N28  1  0.50817600  0.35277900  0.36609200  1
  N  N29  1  0.50817600  0.35277900  0.63390800  1
  N  N30  1  0.49182400  0.85277900  0.63390800  1
  N  N31  1  0.49182400  0.85277900  0.36609200  1
