# generated using pymatgen
data_CaB2(HO)8
_symmetry_space_group_name_H-M   'P 1'
_cell_length_a   5.67224600
_cell_length_b   7.81583973
_cell_length_c   8.11587686
_cell_angle_alpha   64.55154407
_cell_angle_beta   73.33694219
_cell_angle_gamma   71.81563091
_symmetry_Int_Tables_number   1
_chemical_formula_structural   CaB2(HO)8
_chemical_formula_sum   'Ca2 B4 H16 O16'
_cell_volume   303.74155254
_cell_formula_units_Z   2
loop_
 _symmetry_equiv_pos_site_id
 _symmetry_equiv_pos_as_xyz
  1  'x, y, z'
loop_
 _atom_site_type_symbol
 _atom_site_label
 _atom_site_symmetry_multiplicity
 _atom_site_fract_x
 _atom_site_fract_y
 _atom_site_fract_z
 _atom_site_occupancy
  Ca  Ca0  1  0.16381200  0.22953000  0.82138500  1
  Ca  Ca1  1  0.83618800  0.77047000  0.17861500  1
  B  B2  1  0.82771500  0.02502900  0.76945500  1
  B  B3  1  0.17228500  0.97497100  0.23054500  1
  B  B4  1  0.39723000  0.43257500  0.28065700  1
  B  B5  1  0.60277000  0.56742500  0.71934300  1
  H  H6  1  0.43617000  0.05232500  0.29863000  1
  H  H7  1  0.56383000  0.94767500  0.70137000  1
  H  H8  1  0.63320200  0.20357800  0.92033700  1
  H  H9  1  0.36679800  0.79642200  0.07966300  1
  H  H10  1  0.94021700  0.25305500  0.54713500  1
  H  H11  1  0.05978300  0.74694500  0.45286500  1
  H  H12  1  0.12627800  0.79272300  0.79622800  1
  H  H13  1  0.87372200  0.20727700  0.20377200  1
  H  H14  1  0.57837700  0.16574400  0.43179600  1
  H  H15  1  0.42162300  0.83425600  0.56820400  1
  H  H16  1  0.65530400  0.54335900  0.05045700  1
  H  H17  1  0.34469600  0.45664100  0.94954300  1
  H  H18  1  0.54091500  0.59961300  0.48068900  1
  H  H19  1  0.45908500  0.40038700  0.51931100  1
  H  H20  1  0.86637500  0.63418500  0.80142600  1
  H  H21  1  0.13362500  0.36581500  0.19857400  1
  O  O22  1  0.59741500  0.06892200  0.69441900  1
  O  O23  1  0.40258500  0.93107800  0.30558100  1
  O  O24  1  0.76616600  0.08250400  0.93523800  1
  O  O25  1  0.23383400  0.91749600  0.06476200  1
  O  O26  1  0.02131300  0.12935700  0.63217200  1
  O  O27  1  0.97868700  0.87064300  0.36782800  1
  O  O28  1  0.05964200  0.18663100  0.15858600  1
  O  O29  1  0.94035800  0.81336900  0.84141400  1
  O  O30  1  0.54712600  0.23268400  0.30282000  1
  O  O31  1  0.45287400  0.76731600  0.69718000  1
  O  O32  1  0.43164600  0.42602700  0.83756600  1
  O  O33  1  0.56835400  0.57397300  0.16243400  1
  O  O34  1  0.30693800  0.45256700  0.46345000  1
  O  O35  1  0.69306200  0.54743300  0.53655000  1
  O  O36  1  0.18375700  0.48242800  0.18696500  1
  O  O37  1  0.81624300  0.51757200  0.81303500  1
