# generated using pymatgen
data_H8PtN2(ClO)2
_symmetry_space_group_name_H-M   'P 1'
_cell_length_a   7.62595500
_cell_length_b   6.47892000
_cell_length_c   6.77447899
_cell_angle_alpha   89.84130154
_cell_angle_beta   90.00000000
_cell_angle_gamma   90.00000000
_symmetry_Int_Tables_number   1
_chemical_formula_structural   H8PtN2(ClO)2
_chemical_formula_sum   'H16 Pt2 N4 Cl4 O4'
_cell_volume   334.71185115
_cell_formula_units_Z   2
loop_
 _symmetry_equiv_pos_site_id
 _symmetry_equiv_pos_as_xyz
  1  'x, y, z'
loop_
 _atom_site_type_symbol
 _atom_site_label
 _atom_site_symmetry_multiplicity
 _atom_site_fract_x
 _atom_site_fract_y
 _atom_site_fract_z
 _atom_site_occupancy
  H  H0  1  0.25000000  0.17804500  0.58762400  1
  H  H1  1  0.75000000  0.82195500  0.41237600  1
  H  H2  1  0.25000000  0.82491600  0.19973600  1
  H  H3  1  0.75000000  0.17508400  0.80026400  1
  H  H4  1  0.93459300  0.11071300  0.34689100  1
  H  H5  1  0.43459300  0.88928700  0.65310900  1
  H  H6  1  0.06540700  0.88928700  0.65310900  1
  H  H7  1  0.56540700  0.11071300  0.34689100  1
  H  H8  1  0.92763900  0.34176900  0.23727500  1
  H  H9  1  0.42763900  0.65823100  0.76272500  1
  H  H10  1  0.07236100  0.65823100  0.76272500  1
  H  H11  1  0.57236100  0.34176900  0.23727500  1
  H  H12  1  0.92908900  0.13099300  0.09884100  1
  H  H13  1  0.42908900  0.86900700  0.90115900  1
  H  H14  1  0.07091100  0.86900700  0.90115900  1
  H  H15  1  0.57091100  0.13099300  0.09884100  1
  Pt  Pt16  1  0.25000000  0.20602400  0.22733000  1
  Pt  Pt17  1  0.75000000  0.79397600  0.77267000  1
  N  N18  1  0.97929600  0.19589500  0.22722400  1
  N  N19  1  0.47929600  0.80410500  0.77277600  1
  N  N20  1  0.02070400  0.80410500  0.77277600  1
  N  N21  1  0.52070400  0.19589500  0.22722400  1
  Cl  Cl22  1  0.25000000  0.35477100  0.90933300  1
  Cl  Cl23  1  0.75000000  0.64522900  0.09066700  1
  Cl  Cl24  1  0.25000000  0.52680400  0.39084400  1
  Cl  Cl25  1  0.75000000  0.47319600  0.60915600  1
  O  O26  1  0.25000000  0.06302800  0.49380500  1
  O  O27  1  0.75000000  0.93697200  0.50619500  1
  O  O28  1  0.25000000  0.92824200  0.09236300  1
  O  O29  1  0.75000000  0.07175800  0.90763700  1
