# generated using pymatgen
data_TeP4H26(NO5)4
_symmetry_space_group_name_H-M   'P 1'
_cell_length_a   22.32792800
_cell_length_b   6.88645500
_cell_length_c   7.94975780
_cell_angle_alpha   63.76884252
_cell_angle_beta   90.00000000
_cell_angle_gamma   90.00000000
_symmetry_Int_Tables_number   1
_chemical_formula_structural   TeP4H26(NO5)4
_chemical_formula_sum   'Te2 P8 H52 N8 O40'
_cell_volume   1096.47633500
_cell_formula_units_Z   2
loop_
 _symmetry_equiv_pos_site_id
 _symmetry_equiv_pos_as_xyz
  1  'x, y, z'
loop_
 _atom_site_type_symbol
 _atom_site_label
 _atom_site_symmetry_multiplicity
 _atom_site_fract_x
 _atom_site_fract_y
 _atom_site_fract_z
 _atom_site_occupancy
  Te  Te0  1  0.00000000  0.00000000  0.00000000  1
  Te  Te1  1  0.50000000  0.00000000  0.50000000  1
  P  P2  1  0.21345000  0.51094400  0.48285900  1
  P  P3  1  0.28655000  0.51094400  0.98285900  1
  P  P4  1  0.78655000  0.48905600  0.51714100  1
  P  P5  1  0.71345000  0.48905600  0.01714100  1
  P  P6  1  0.12138700  0.28399100  0.36325400  1
  P  P7  1  0.37861300  0.28399100  0.86325400  1
  P  P8  1  0.87861300  0.71600900  0.63674600  1
  P  P9  1  0.62138700  0.71600900  0.13674600  1
  H  H10  1  0.20823700  0.14391900  0.96347700  1
  H  H11  1  0.29176300  0.14391900  0.46347700  1
  H  H12  1  0.79176300  0.85608100  0.03652300  1
  H  H13  1  0.70823700  0.85608100  0.53652300  1
  H  H14  1  0.86727400  0.90646400  0.01771200  1
  H  H15  1  0.63272600  0.90646400  0.51771200  1
  H  H16  1  0.13272600  0.09353600  0.98228800  1
  H  H17  1  0.36727400  0.09353600  0.48228800  1
  H  H18  1  0.17329000  0.04562900  0.82617400  1
  H  H19  1  0.32671000  0.04562900  0.32617400  1
  H  H20  1  0.82671000  0.95437100  0.17382600  1
  H  H21  1  0.67329000  0.95437100  0.67382600  1
  H  H22  1  0.68334200  0.11243000  0.44405000  1
  H  H23  1  0.81665800  0.11243000  0.94405000  1
  H  H24  1  0.31665800  0.88757000  0.55595000  1
  H  H25  1  0.18334200  0.88757000  0.05595000  1
  H  H26  1  0.94842000  0.24971100  0.51947100  1
  H  H27  1  0.55158000  0.24971100  0.01947100  1
  H  H28  1  0.05158000  0.75028900  0.48052900  1
  H  H29  1  0.44842000  0.75028900  0.98052900  1
  H  H30  1  0.42149800  0.87437700  0.10654000  1
  H  H31  1  0.07850200  0.87437700  0.60654000  1
  H  H32  1  0.57850200  0.12562300  0.89346000  1
  H  H33  1  0.92149800  0.12562300  0.39346000  1
  H  H34  1  0.95570700  0.37079000  0.28388500  1
  H  H35  1  0.54429300  0.37079000  0.78388500  1
  H  H36  1  0.04429300  0.62921000  0.71611500  1
  H  H37  1  0.45570700  0.62921000  0.21611500  1
  H  H38  1  0.88599700  0.34849600  0.38115500  1
  H  H39  1  0.61400300  0.34849600  0.88115500  1
  H  H40  1  0.11400300  0.65150400  0.61884500  1
  H  H41  1  0.38599700  0.65150400  0.11884500  1
  H  H42  1  0.03586600  0.15264700  0.66939100  1
  H  H43  1  0.46413400  0.15264700  0.16939100  1
  H  H44  1  0.96413400  0.84735300  0.33060900  1
  H  H45  1  0.53586600  0.84735300  0.83060900  1
  H  H46  1  0.93629600  0.74425300  0.91721500  1
  H  H47  1  0.56370400  0.74425300  0.41721500  1
  H  H48  1  0.06370400  0.25574700  0.08278500  1
  H  H49  1  0.43629600  0.25574700  0.58278500  1
  H  H50  1  0.06004800  0.65929900  0.07647200  1
  H  H51  1  0.43995200  0.65929900  0.57647200  1
  H  H52  1  0.93995200  0.34070100  0.92352800  1
  H  H53  1  0.56004800  0.34070100  0.42352800  1
  H  H54  1  0.77576100  0.34534500  0.25470400  1
  H  H55  1  0.72423900  0.34534500  0.75470400  1
  H  H56  1  0.22423900  0.65465500  0.74529600  1
  H  H57  1  0.27576100  0.65465500  0.24529600  1
  H  H58  1  0.79890600  0.77414300  0.78369300  1
  H  H59  1  0.70109400  0.77414300  0.28369300  1
  H  H60  1  0.20109400  0.22585700  0.21630700  1
  H  H61  1  0.29890600  0.22585700  0.71630700  1
  N  N62  1  0.32505700  0.04210100  0.45635300  1
  N  N63  1  0.17494300  0.04210100  0.95635300  1
  N  N64  1  0.67494300  0.95789900  0.54364700  1
  N  N65  1  0.82505700  0.95789900  0.04364700  1
  N  N66  1  0.92836400  0.27651200  0.39284900  1
  N  N67  1  0.57163600  0.27651200  0.89284900  1
  N  N68  1  0.07163600  0.72348800  0.60715100  1
  N  N69  1  0.42836400  0.72348800  0.10715100  1
  O  O70  1  0.99520100  0.15123300  0.72618100  1
  O  O71  1  0.50479900  0.15123300  0.22618100  1
  O  O72  1  0.00479900  0.84876700  0.27381900  1
  O  O73  1  0.49520100  0.84876700  0.77381900  1
  O  O74  1  0.43451400  0.19673200  0.48593600  1
  O  O75  1  0.06548600  0.19673200  0.98593600  1
  O  O76  1  0.56548600  0.80326800  0.51406400  1
  O  O77  1  0.93451400  0.80326800  0.01406400  1
  O  O78  1  0.05984800  0.81040200  0.97258700  1
  O  O79  1  0.44015200  0.81040200  0.47258700  1
  O  O80  1  0.94015200  0.18959800  0.02741300  1
  O  O81  1  0.55984800  0.18959800  0.52741300  1
  O  O82  1  0.31237000  0.58350500  0.12172800  1
  O  O83  1  0.18763000  0.58350500  0.62172800  1
  O  O84  1  0.68763000  0.41649500  0.87827200  1
  O  O85  1  0.81237000  0.41649500  0.37827200  1
  O  O86  1  0.24835700  0.30080700  0.56376300  1
  O  O87  1  0.25164300  0.30080700  0.06376300  1
  O  O88  1  0.75164300  0.69919300  0.43623700  1
  O  O89  1  0.74835700  0.69919300  0.93623700  1
  O  O90  1  0.25051300  0.70338400  0.32923700  1
  O  O91  1  0.24948700  0.70338400  0.82923700  1
  O  O92  1  0.74948700  0.29661600  0.67076300  1
  O  O93  1  0.75051300  0.29661600  0.17076300  1
  O  O94  1  0.57479500  0.61673700  0.29078700  1
  O  O95  1  0.92520500  0.61673700  0.79078700  1
  O  O96  1  0.42520500  0.38326300  0.70921300  1
  O  O97  1  0.07479500  0.38326300  0.20921300  1
  O  O98  1  0.09815700  0.14402000  0.55905600  1
  O  O99  1  0.40184300  0.14402000  0.05905600  1
  O  O100  1  0.90184300  0.85598000  0.44094400  1
  O  O101  1  0.59815700  0.85598000  0.94094400  1
  O  O102  1  0.16984300  0.14705100  0.31785200  1
  O  O103  1  0.33015700  0.14705100  0.81785200  1
  O  O104  1  0.83015700  0.85294900  0.68214800  1
  O  O105  1  0.66984300  0.85294900  0.18214800  1
  O  O106  1  0.15727000  0.49228900  0.35960400  1
  O  O107  1  0.34273000  0.49228900  0.85960400  1
  O  O108  1  0.84273000  0.50771100  0.64039600  1
  O  O109  1  0.65727000  0.50771100  0.14039600  1
