# generated using pymatgen
data_Na5H29(IO12)2
_symmetry_space_group_name_H-M   'P 1'
_cell_length_a   8.87333800
_cell_length_b   8.89224940
_cell_length_c   9.13963156
_cell_angle_alpha   117.89148651
_cell_angle_beta   100.10264725
_cell_angle_gamma   94.21835300
_symmetry_Int_Tables_number   1
_chemical_formula_structural   Na5H29(IO12)2
_chemical_formula_sum   'Na5 H29 I2 O24'
_cell_volume   617.38120649
_cell_formula_units_Z   1
loop_
 _symmetry_equiv_pos_site_id
 _symmetry_equiv_pos_as_xyz
  1  'x, y, z'
loop_
 _atom_site_type_symbol
 _atom_site_label
 _atom_site_symmetry_multiplicity
 _atom_site_fract_x
 _atom_site_fract_y
 _atom_site_fract_z
 _atom_site_occupancy
  Na  Na0  1  0.87357300  0.38123800  0.11321500  1
  Na  Na1  1  0.12642700  0.61876200  0.88678500  1
  Na  Na2  1  0.00000000  0.00000000  0.00000000  1
  Na  Na3  1  0.64106600  0.64982500  0.35457300  1
  Na  Na4  1  0.35893400  0.35017500  0.64542700  1
  H  H5  1  0.55289300  0.21805600  0.74349700  1
  H  H6  1  0.44710700  0.78194400  0.25650300  1
  H  H7  1  0.00000000  0.50000000  0.00000000  1
  H  H8  1  0.18667500  0.53750000  0.14621500  1
  H  H9  1  0.81332500  0.46250000  0.85378500  1
  H  H10  1  0.78649100  0.07526400  0.74701600  1
  H  H11  1  0.21350900  0.92473600  0.25298400  1
  H  H12  1  0.94498100  0.20262200  0.82022500  1
  H  H13  1  0.05501900  0.79737800  0.17977500  1
  H  H14  1  0.90253600  0.85124700  0.37388200  1
  H  H15  1  0.09746400  0.14875300  0.62611800  1
  H  H16  1  0.84558700  0.70838500  0.18024200  1
  H  H17  1  0.15441300  0.29161500  0.81975800  1
  H  H18  1  0.88798400  0.18086400  0.30584900  1
  H  H19  1  0.11201600  0.81913600  0.69415100  1
  H  H20  1  0.99346700  0.35926700  0.39459900  1
  H  H21  1  0.00653300  0.64073300  0.60540100  1
  H  H22  1  0.33273800  0.54654000  0.44613100  1
  H  H23  1  0.66726200  0.45346000  0.55386900  1
  H  H24  1  0.22160900  0.36831500  0.34697600  1
  H  H25  1  0.77839100  0.63168500  0.65302400  1
  H  H26  1  0.44528900  0.70915200  0.98390300  1
  H  H27  1  0.55471100  0.29084800  0.01609700  1
  H  H28  1  0.40427300  0.71497700  0.81264400  1
  H  H29  1  0.59572700  0.28502300  0.18735600  1
  H  H30  1  0.66067200  0.87404100  0.88492900  1
  H  H31  1  0.33932800  0.12595900  0.11507100  1
  H  H32  1  0.69723900  0.91078200  0.07258400  1
  H  H33  1  0.30276100  0.08921800  0.92741600  1
  I  I34  1  0.40607800  0.91877100  0.59039100  1
  I  I35  1  0.59392200  0.08122900  0.40960900  1
  O  O36  1  0.37468900  0.70864500  0.39064200  1
  O  O37  1  0.62531100  0.29135500  0.60935800  1
  O  O38  1  0.20630500  0.92824500  0.61446000  1
  O  O39  1  0.79369500  0.07175500  0.38554000  1
  O  O40  1  0.47074000  0.16993000  0.78056500  1
  O  O41  1  0.52926000  0.83007000  0.21943500  1
  O  O42  1  0.51694900  0.15688300  0.26281900  1
  O  O43  1  0.48305100  0.84311700  0.73718100  1
  O  O44  1  0.62694700  0.96463700  0.55766000  1
  O  O45  1  0.37305300  0.03536300  0.44234000  1
  O  O46  1  0.88052800  0.54674300  0.96402700  1
  O  O47  1  0.11947200  0.45325700  0.03597300  1
  O  O48  1  0.87384200  0.13666000  0.84875100  1
  O  O49  1  0.12615800  0.86334000  0.15124900  1
  O  O50  1  0.88505800  0.72659600  0.29653600  1
  O  O51  1  0.11494200  0.27340400  0.70346400  1
  O  O52  1  0.95846400  0.25671400  0.28317400  1
  O  O53  1  0.04153600  0.74328600  0.71682600  1
  O  O54  1  0.28039600  0.45279000  0.46074700  1
  O  O55  1  0.71960400  0.54721000  0.53925300  1
  O  O56  1  0.38352100  0.64192200  0.86533600  1
  O  O57  1  0.61647900  0.35807800  0.13466400  1
  O  O58  1  0.74632000  0.89127700  0.97891300  1
  O  O59  1  0.25368000  0.10872300  0.02108700  1
