# generated using pymatgen
data_Na5Te2H36AuO28
_symmetry_space_group_name_H-M   'P 1'
_cell_length_a   5.99453900
_cell_length_b   9.01624532
_cell_length_c   12.79370327
_cell_angle_alpha   98.14824932
_cell_angle_beta   98.45870189
_cell_angle_gamma   92.70621984
_symmetry_Int_Tables_number   1
_chemical_formula_structural   Na5Te2H36AuO28
_chemical_formula_sum   'Na5 Te2 H36 Au1 O28'
_cell_volume   675.41272131
_cell_formula_units_Z   1
loop_
 _symmetry_equiv_pos_site_id
 _symmetry_equiv_pos_as_xyz
  1  'x, y, z'
loop_
 _atom_site_type_symbol
 _atom_site_label
 _atom_site_symmetry_multiplicity
 _atom_site_fract_x
 _atom_site_fract_y
 _atom_site_fract_z
 _atom_site_occupancy
  Na  Na0  1  0.00000000  0.00000000  0.50000000  1
  Na  Na1  1  0.65249800  0.66980600  0.04571800  1
  Na  Na2  1  0.34750200  0.33019400  0.95428200  1
  Na  Na3  1  0.67134500  0.77369100  0.31854900  1
  Na  Na4  1  0.32865500  0.22630900  0.68145100  1
  Te  Te5  1  0.81646700  0.75526200  0.80581200  1
  Te  Te6  1  0.18353300  0.24473800  0.19418800  1
  H  H7  1  0.14565300  0.71819600  0.70107100  1
  H  H8  1  0.85434700  0.28180400  0.29892900  1
  H  H9  1  0.39920600  0.76872600  0.83404700  1
  H  H10  1  0.60079400  0.23127400  0.16595300  1
  H  H11  1  0.11291000  0.48626100  0.79050400  1
  H  H12  1  0.88709000  0.51373900  0.20949600  1
  H  H13  1  0.37591800  0.52784300  0.81746100  1
  H  H14  1  0.62408200  0.47215700  0.18253900  1
  H  H15  1  0.00240100  0.68395100  0.52028700  1
  H  H16  1  0.99759900  0.31604900  0.47971300  1
  H  H17  1  0.79163600  0.75048400  0.56683900  1
  H  H18  1  0.20836400  0.24951600  0.43316100  1
  H  H19  1  0.43474700  0.65998800  0.61700900  1
  H  H20  1  0.56525300  0.34001200  0.38299100  1
  H  H21  1  0.28452500  0.50363700  0.57817300  1
  H  H22  1  0.71547500  0.49636300  0.42182700  1
  H  H23  1  0.83473900  0.19401500  0.66199500  1
  H  H24  1  0.16526100  0.80598500  0.33800500  1
  H  H25  1  0.90258800  0.06669600  0.73314000  1
  H  H26  1  0.09741200  0.93330400  0.26686000  1
  H  H27  1  0.55506700  0.05902900  0.85053400  1
  H  H28  1  0.44493300  0.94097100  0.14946600  1
  H  H29  1  0.29733900  0.01180700  0.81851400  1
  H  H30  1  0.70266100  0.98819300  0.18148600  1
  H  H31  1  0.73018200  0.42921800  0.68955100  1
  H  H32  1  0.26981800  0.57078200  0.31044900  1
  H  H33  1  0.67252600  0.36171700  0.56425200  1
  H  H34  1  0.32747400  0.63828300  0.43574800  1
  H  H35  1  0.78426700  0.45814100  0.89116800  1
  H  H36  1  0.21573300  0.54185900  0.10883200  1
  H  H37  1  0.83624400  0.35733200  0.98393000  1
  H  H38  1  0.16375600  0.64266800  0.01607000  1
  H  H39  1  0.51003400  0.92275200  0.62024100  1
  H  H40  1  0.48996600  0.07724800  0.37975900  1
  H  H41  1  0.26782200  0.91512700  0.63933700  1
  H  H42  1  0.73217800  0.08487300  0.36066300  1
  Au  Au43  1  0.00000000  0.00000000  0.00000000  1
  O  O44  1  0.12250600  0.80256600  0.75622300  1
  O  O45  1  0.87749400  0.19743400  0.24377700  1
  O  O46  1  0.65361600  0.76902200  0.66966400  1
  O  O47  1  0.34638400  0.23097800  0.33033600  1
  O  O48  1  0.85788400  0.54774600  0.78736600  1
  O  O49  1  0.14211600  0.45225400  0.21263400  1
  O  O50  1  0.53024000  0.71612100  0.86539400  1
  O  O51  1  0.46976000  0.28387900  0.13460600  1
  O  O52  1  0.97328100  0.77417400  0.95676900  1
  O  O53  1  0.02671900  0.22582600  0.04323100  1
  O  O54  1  0.82242300  0.97886600  0.84965300  1
  O  O55  1  0.17757700  0.02113400  0.15034700  1
  O  O56  1  0.26368600  0.44076200  0.79456600  1
  O  O57  1  0.73631400  0.55923800  0.20543400  1
  O  O58  1  0.86858000  0.73925200  0.50094100  1
  O  O59  1  0.13142000  0.26074800  0.49905900  1
  O  O60  1  0.28582600  0.61072900  0.57314200  1
  O  O61  1  0.71417400  0.38927100  0.42685800  1
  O  O62  1  0.94258600  0.11442000  0.67267400  1
  O  O63  1  0.05741400  0.88558000  0.32732600  1
  O  O64  1  0.40277400  0.10037500  0.84398600  1
  O  O65  1  0.59722600  0.89962500  0.15601400  1
  O  O66  1  0.66127100  0.33819600  0.63663300  1
  O  O67  1  0.33872900  0.66180400  0.36336700  1
  O  O68  1  0.72202500  0.41913600  0.95089000  1
  O  O69  1  0.27797500  0.58086400  0.04911000  1
  O  O70  1  0.36499400  0.96962600  0.60045400  1
  O  O71  1  0.63500600  0.03037400  0.39954600  1
