# generated using pymatgen
data_NdBO3
_symmetry_space_group_name_H-M   'P 1'
_cell_length_a   5.08363100
_cell_length_b   5.80358900
_cell_length_c   8.14229300
_cell_angle_alpha   90.00000000
_cell_angle_beta   90.00000000
_cell_angle_gamma   90.00000000
_symmetry_Int_Tables_number   1
_chemical_formula_structural   NdBO3
_chemical_formula_sum   'Nd4 B4 O12'
_cell_volume   240.22455338
_cell_formula_units_Z   4
loop_
 _symmetry_equiv_pos_site_id
 _symmetry_equiv_pos_as_xyz
  1  'x, y, z'
loop_
 _atom_site_type_symbol
 _atom_site_label
 _atom_site_symmetry_multiplicity
 _atom_site_fract_x
 _atom_site_fract_y
 _atom_site_fract_z
 _atom_site_occupancy
  Nd  Nd0  1  0.25000000  0.25767000  0.41484400  1
  Nd  Nd1  1  0.75000000  0.74233000  0.58515600  1
  Nd  Nd2  1  0.25000000  0.75767000  0.08515600  1
  Nd  Nd3  1  0.75000000  0.24233000  0.91484400  1
  B  B4  1  0.25000000  0.41959700  0.76228900  1
  B  B5  1  0.75000000  0.58040300  0.23771100  1
  B  B6  1  0.25000000  0.91959700  0.73771100  1
  B  B7  1  0.75000000  0.08040300  0.26228900  1
  O  O8  1  0.48459500  0.91476200  0.82366000  1
  O  O9  1  0.98459500  0.08523800  0.17634000  1
  O  O10  1  0.01540500  0.41476200  0.67634000  1
  O  O11  1  0.51540500  0.58523800  0.32366000  1
  O  O12  1  0.75000000  0.09521000  0.43082500  1
  O  O13  1  0.25000000  0.90479000  0.56917500  1
  O  O14  1  0.75000000  0.59521000  0.06917500  1
  O  O15  1  0.25000000  0.40479000  0.93082500  1
  O  O16  1  0.51540500  0.08523800  0.17634000  1
  O  O17  1  0.01540500  0.91476200  0.82366000  1
  O  O18  1  0.98459500  0.58523800  0.32366000  1
  O  O19  1  0.48459500  0.41476200  0.67634000  1
