# generated using pymatgen
data_KAl2P2H5O11
_symmetry_space_group_name_H-M   'P 1'
_cell_length_a   9.28933200
_cell_length_b   9.79694500
_cell_length_c   9.89082500
_cell_angle_alpha   90.00000000
_cell_angle_beta   90.00000000
_cell_angle_gamma   90.00000000
_symmetry_Int_Tables_number   1
_chemical_formula_structural   KAl2P2H5O11
_chemical_formula_sum   'K4 Al8 P8 H20 O44'
_cell_volume   900.13504953
_cell_formula_units_Z   4
loop_
 _symmetry_equiv_pos_site_id
 _symmetry_equiv_pos_as_xyz
  1  'x, y, z'
loop_
 _atom_site_type_symbol
 _atom_site_label
 _atom_site_symmetry_multiplicity
 _atom_site_fract_x
 _atom_site_fract_y
 _atom_site_fract_z
 _atom_site_occupancy
  K  K0  1  0.76100700  0.45189300  0.15315300  1
  K  K1  1  0.73899300  0.54810700  0.65315300  1
  K  K2  1  0.26100700  0.04810700  0.84684700  1
  K  K3  1  0.23899300  0.95189300  0.34684700  1
  Al  Al4  1  0.59079300  0.76287400  0.35546700  1
  Al  Al5  1  0.90920700  0.23712600  0.85546700  1
  Al  Al6  1  0.09079300  0.73712600  0.64453300  1
  Al  Al7  1  0.40920700  0.26287400  0.14453300  1
  Al  Al8  1  0.14501800  0.50000800  0.19248700  1
  Al  Al9  1  0.35498200  0.49999200  0.69248700  1
  Al  Al10  1  0.64501800  0.99999200  0.80751300  1
  Al  Al11  1  0.85498200  0.00000800  0.30751300  1
  P  P12  1  0.91805300  0.69654700  0.36003900  1
  P  P13  1  0.58194700  0.30345300  0.86003900  1
  P  P14  1  0.41805300  0.80345300  0.63996100  1
  P  P15  1  0.08194700  0.19654700  0.13996100  1
  P  P16  1  0.41727400  0.47275500  0.37489900  1
  P  P17  1  0.08272600  0.52724500  0.87489900  1
  P  P18  1  0.91727400  0.02724500  0.62510100  1
  P  P19  1  0.58272600  0.97275500  0.12510100  1
  H  H20  1  0.77930800  0.24476700  0.39437600  1
  H  H21  1  0.72069200  0.75523300  0.89437600  1
  H  H22  1  0.27930800  0.25523300  0.60562400  1
  H  H23  1  0.22069200  0.74476700  0.10562400  1
  H  H24  1  0.65193000  0.16955000  0.30327100  1
  H  H25  1  0.84807000  0.83045000  0.80327100  1
  H  H26  1  0.15193000  0.33045000  0.69672900  1
  H  H27  1  0.34807000  0.66955000  0.19672900  1
  H  H28  1  0.56125700  0.70168900  0.05062600  1
  H  H29  1  0.93874300  0.29831100  0.55062600  1
  H  H30  1  0.06125700  0.79831100  0.94937400  1
  H  H31  1  0.43874300  0.20168900  0.44937400  1
  H  H32  1  0.55221700  0.60355400  0.92523300  1
  H  H33  1  0.94778300  0.39644600  0.42523300  1
  H  H34  1  0.05221700  0.89644600  0.07476700  1
  H  H35  1  0.44778300  0.10355400  0.57476700  1
  H  H36  1  0.69225700  0.95179500  0.49371000  1
  H  H37  1  0.80774300  0.04820500  0.99371000  1
  H  H38  1  0.19225700  0.54820500  0.50629000  1
  H  H39  1  0.30774300  0.45179500  0.00629000  1
  O  O40  1  0.05050100  0.33106800  0.21396700  1
  O  O41  1  0.44949900  0.66893200  0.71396700  1
  O  O42  1  0.55050100  0.16893200  0.78603300  1
  O  O43  1  0.94949900  0.83106800  0.28603300  1
  O  O44  1  0.75403000  0.65979100  0.35906100  1
  O  O45  1  0.74597000  0.34020900  0.85906100  1
  O  O46  1  0.25403000  0.84020900  0.64093900  1
  O  O47  1  0.24597000  0.15979100  0.14093900  1
  O  O48  1  0.53595500  0.29343400  0.01019100  1
  O  O49  1  0.96404500  0.70656600  0.51019100  1
  O  O50  1  0.03595500  0.20656600  0.98980900  1
  O  O51  1  0.46404500  0.79343400  0.48980900  1
  O  O52  1  0.99327700  0.57684000  0.29022300  1
  O  O53  1  0.50672300  0.42316000  0.79022300  1
  O  O54  1  0.49327700  0.92316000  0.70977700  1
  O  O55  1  0.00672300  0.07684000  0.20977700  1
  O  O56  1  0.25147300  0.47983300  0.35643300  1
  O  O57  1  0.24852700  0.52016700  0.85643300  1
  O  O58  1  0.75147300  0.02016700  0.64356700  1
  O  O59  1  0.74852700  0.97983300  0.14356700  1
  O  O60  1  0.47219500  0.33817700  0.30367900  1
  O  O61  1  0.02780500  0.66182300  0.80367900  1
  O  O62  1  0.97219500  0.16182300  0.69632100  1
  O  O63  1  0.52780500  0.83817700  0.19632100  1
  O  O64  1  0.04552100  0.53735100  0.02574000  1
  O  O65  1  0.45447900  0.46264900  0.52574000  1
  O  O66  1  0.54552100  0.96264900  0.97426000  1
  O  O67  1  0.95447900  0.03735100  0.47426000  1
  O  O68  1  0.49186500  0.59689300  0.30652100  1
  O  O69  1  0.00813500  0.40310700  0.80652100  1
  O  O70  1  0.99186500  0.90310700  0.69347900  1
  O  O71  1  0.50813500  0.09689300  0.19347900  1
  O  O72  1  0.69759300  0.91904400  0.39893300  1
  O  O73  1  0.80240700  0.08095600  0.89893300  1
  O  O74  1  0.19759300  0.58095600  0.60106700  1
  O  O75  1  0.30240700  0.41904400  0.10106700  1
  O  O76  1  0.75634500  0.18029900  0.31895200  1
  O  O77  1  0.74365500  0.81970100  0.81895200  1
  O  O78  1  0.25634500  0.31970100  0.68104800  1
  O  O79  1  0.24365500  0.68029900  0.18104800  1
  O  O80  1  0.61955200  0.64300200  0.99119100  1
  O  O81  1  0.88044800  0.35699800  0.49119100  1
  O  O82  1  0.11955200  0.85699800  0.00880900  1
  O  O83  1  0.38044800  0.14300200  0.50880900  1
