# generated using pymatgen
data_SbHC2NCl11
_symmetry_space_group_name_H-M   'P 1'
_cell_length_a   10.47163300
_cell_length_b   11.42278400
_cell_length_c   16.02438638
_cell_angle_alpha   63.13188832
_cell_angle_beta   90.00000000
_cell_angle_gamma   90.00000000
_symmetry_Int_Tables_number   1
_chemical_formula_structural   SbHC2NCl11
_chemical_formula_sum   'Sb4 H4 C8 N4 Cl44'
_cell_volume   1709.84440759
_cell_formula_units_Z   4
loop_
 _symmetry_equiv_pos_site_id
 _symmetry_equiv_pos_as_xyz
  1  'x, y, z'
loop_
 _atom_site_type_symbol
 _atom_site_label
 _atom_site_symmetry_multiplicity
 _atom_site_fract_x
 _atom_site_fract_y
 _atom_site_fract_z
 _atom_site_occupancy
  Sb  Sb0  1  0.28664000  0.29536200  0.69710700  1
  Sb  Sb1  1  0.21336000  0.29536200  0.19710700  1
  Sb  Sb2  1  0.71336000  0.70463800  0.30289300  1
  Sb  Sb3  1  0.78664000  0.70463800  0.80289300  1
  H  H4  1  0.18319700  0.63104400  0.68135800  1
  H  H5  1  0.31680300  0.63104400  0.18135800  1
  H  H6  1  0.81680300  0.36895600  0.31864200  1
  H  H7  1  0.68319700  0.36895600  0.81864200  1
  C  C8  1  0.23945900  0.82345200  0.57825000  1
  C  C9  1  0.26054100  0.82345200  0.07825000  1
  C  C10  1  0.76054100  0.17654800  0.42175000  1
  C  C11  1  0.73945900  0.17654800  0.92175000  1
  C  C12  1  0.26936300  0.71623700  0.75314400  1
  C  C13  1  0.23063700  0.71623700  0.25314400  1
  C  C14  1  0.73063700  0.28376300  0.24685600  1
  C  C15  1  0.76936300  0.28376300  0.74685600  1
  N  N16  1  0.22771600  0.71620700  0.67584800  1
  N  N17  1  0.27228400  0.71620700  0.17584800  1
  N  N18  1  0.77228400  0.28379300  0.32415200  1
  N  N19  1  0.72771600  0.28379300  0.82415200  1
  Cl  Cl20  1  0.10739000  0.42054500  0.71487900  1
  Cl  Cl21  1  0.39261000  0.42054500  0.21487900  1
  Cl  Cl22  1  0.89261000  0.57945500  0.28512100  1
  Cl  Cl23  1  0.60739000  0.57945500  0.78512100  1
  Cl  Cl24  1  0.46305800  0.17344900  0.67963500  1
  Cl  Cl25  1  0.03694200  0.17344900  0.17963500  1
  Cl  Cl26  1  0.53694200  0.82655100  0.32036500  1
  Cl  Cl27  1  0.96305800  0.82655100  0.82036500  1
  Cl  Cl28  1  0.38603000  0.29662500  0.83233600  1
  Cl  Cl29  1  0.11397000  0.29662500  0.33233600  1
  Cl  Cl30  1  0.61397000  0.70337500  0.16766400  1
  Cl  Cl31  1  0.88603000  0.70337500  0.66766400  1
  Cl  Cl32  1  0.39188800  0.49792100  0.59756000  1
  Cl  Cl33  1  0.10811200  0.49792100  0.09756000  1
  Cl  Cl34  1  0.60811200  0.50207900  0.40244000  1
  Cl  Cl35  1  0.89188800  0.50207900  0.90244000  1
  Cl  Cl36  1  0.17717300  0.09612300  0.79760700  1
  Cl  Cl37  1  0.32282700  0.09612300  0.29760700  1
  Cl  Cl38  1  0.82282700  0.90387700  0.20239300  1
  Cl  Cl39  1  0.67717300  0.90387700  0.70239300  1
  Cl  Cl40  1  0.17816800  0.29638000  0.56413800  1
  Cl  Cl41  1  0.32183200  0.29638000  0.06413800  1
  Cl  Cl42  1  0.82183200  0.70362000  0.43586200  1
  Cl  Cl43  1  0.67816800  0.70362000  0.93586200  1
  Cl  Cl44  1  0.17318200  0.97159300  0.56832000  1
  Cl  Cl45  1  0.32681800  0.97159300  0.06832000  1
  Cl  Cl46  1  0.82681800  0.02840700  0.43168000  1
  Cl  Cl47  1  0.67318200  0.02840700  0.93168000  1
  Cl  Cl48  1  0.40299100  0.84466100  0.54559600  1
  Cl  Cl49  1  0.09700900  0.84466100  0.04559600  1
  Cl  Cl50  1  0.59700900  0.15533900  0.45440400  1
  Cl  Cl51  1  0.90299100  0.15533900  0.95440400  1
  Cl  Cl52  1  0.15134500  0.76856500  0.50808700  1
  Cl  Cl53  1  0.34865500  0.76856500  0.00808700  1
  Cl  Cl54  1  0.84865500  0.23143500  0.49191300  1
  Cl  Cl55  1  0.65134500  0.23143500  0.99191300  1
  Cl  Cl56  1  0.24522700  0.58326100  0.85512300  1
  Cl  Cl57  1  0.25477300  0.58326100  0.35512300  1
  Cl  Cl58  1  0.75477300  0.41673900  0.14487700  1
  Cl  Cl59  1  0.74522700  0.41673900  0.64487700  1
  Cl  Cl60  1  0.34606500  0.84347500  0.75386000  1
  Cl  Cl61  1  0.15393500  0.84347500  0.25386000  1
  Cl  Cl62  1  0.65393500  0.15652500  0.24614000  1
  Cl  Cl63  1  0.84606500  0.15652500  0.74614000  1
