# generated using pymatgen
data_TlCuHCO4
_symmetry_space_group_name_H-M   'P 1'
_cell_length_a   11.15238636
_cell_length_b   11.15238636
_cell_length_c   6.10082400
_cell_angle_alpha   90.00000000
_cell_angle_beta   90.00000000
_cell_angle_gamma   120.00000211
_symmetry_Int_Tables_number   1
_chemical_formula_structural   TlCuHCO4
_chemical_formula_sum   'Tl6 Cu6 H6 C6 O24'
_cell_volume   657.13520084
_cell_formula_units_Z   6
loop_
 _symmetry_equiv_pos_site_id
 _symmetry_equiv_pos_as_xyz
  1  'x, y, z'
loop_
 _atom_site_type_symbol
 _atom_site_label
 _atom_site_symmetry_multiplicity
 _atom_site_fract_x
 _atom_site_fract_y
 _atom_site_fract_z
 _atom_site_occupancy
  Tl  Tl0  1  0.86479500  0.71700500  0.25000000  1
  Tl  Tl1  1  0.85221000  0.13520500  0.25000000  1
  Tl  Tl2  1  0.28299500  0.14779000  0.25000000  1
  Tl  Tl3  1  0.13520500  0.28299500  0.75000000  1
  Tl  Tl4  1  0.14779000  0.86479500  0.75000000  1
  Tl  Tl5  1  0.71700500  0.85221000  0.75000000  1
  Cu  Cu6  1  0.50000000  0.50000000  0.50000000  1
  Cu  Cu7  1  0.00000000  0.50000000  0.50000000  1
  Cu  Cu8  1  0.50000000  0.00000000  0.50000000  1
  Cu  Cu9  1  0.50000000  0.50000000  0.00000000  1
  Cu  Cu10  1  0.00000000  0.50000000  0.00000000  1
  Cu  Cu11  1  0.50000000  0.00000000  0.00000000  1
  H  H12  1  0.80480400  0.41334000  0.25000000  1
  H  H13  1  0.60853600  0.19519600  0.25000000  1
  H  H14  1  0.58666000  0.39146400  0.25000000  1
  H  H15  1  0.19519600  0.58666000  0.75000000  1
  H  H16  1  0.39146400  0.80480400  0.75000000  1
  H  H17  1  0.41334000  0.60853600  0.75000000  1
  C  C18  1  0.19384000  0.76268900  0.25000000  1
  C  C19  1  0.56884900  0.80616000  0.25000000  1
  C  C20  1  0.23731100  0.43115100  0.25000000  1
  C  C21  1  0.80616000  0.23731100  0.75000000  1
  C  C22  1  0.43115100  0.19384000  0.75000000  1
  C  C23  1  0.76268900  0.56884900  0.75000000  1
  O  O24  1  0.89314900  0.49949100  0.25000000  1
  O  O25  1  0.60634200  0.10685100  0.25000000  1
  O  O26  1  0.50050900  0.39365800  0.25000000  1
  O  O27  1  0.10685100  0.50050900  0.75000000  1
  O  O28  1  0.39365800  0.89314900  0.75000000  1
  O  O29  1  0.49949100  0.60634200  0.75000000  1
  O  O30  1  0.14691700  0.69760500  0.43690500  1
  O  O31  1  0.55068800  0.85308300  0.43690500  1
  O  O32  1  0.30239500  0.44931200  0.43690500  1
  O  O33  1  0.85308300  0.30239500  0.93690500  1
  O  O34  1  0.44931200  0.14691700  0.93690500  1
  O  O35  1  0.69760500  0.55068800  0.93690500  1
  O  O36  1  0.85308300  0.30239500  0.56309500  1
  O  O37  1  0.44931200  0.14691700  0.56309500  1
  O  O38  1  0.69760500  0.55068800  0.56309500  1
  O  O39  1  0.14691700  0.69760500  0.06309500  1
  O  O40  1  0.55068800  0.85308300  0.06309500  1
  O  O41  1  0.30239500  0.44931200  0.06309500  1
  O  O42  1  0.28380300  0.89163700  0.25000000  1
  O  O43  1  0.60783500  0.71619700  0.25000000  1
  O  O44  1  0.10836300  0.39216500  0.25000000  1
  O  O45  1  0.71619700  0.10836300  0.75000000  1
  O  O46  1  0.39216500  0.28380300  0.75000000  1
  O  O47  1  0.89163700  0.60783500  0.75000000  1
