# generated using pymatgen
data_CuH6(SeO4)2
_symmetry_space_group_name_H-M   'P 1'
_cell_length_a   6.33373200
_cell_length_b   6.40565100
_cell_length_c   9.18942345
_cell_angle_alpha   88.74355285
_cell_angle_beta   90.00000000
_cell_angle_gamma   90.00000000
_symmetry_Int_Tables_number   1
_chemical_formula_structural   CuH6(SeO4)2
_chemical_formula_sum   'Cu2 H12 Se4 O16'
_cell_volume   372.74067636
_cell_formula_units_Z   2
loop_
 _symmetry_equiv_pos_site_id
 _symmetry_equiv_pos_as_xyz
  1  'x, y, z'
loop_
 _atom_site_type_symbol
 _atom_site_label
 _atom_site_symmetry_multiplicity
 _atom_site_fract_x
 _atom_site_fract_y
 _atom_site_fract_z
 _atom_site_occupancy
  Cu  Cu0  1  0.50000000  0.00000000  0.50000000  1
  Cu  Cu1  1  0.00000000  0.00000000  0.00000000  1
  H  H2  1  0.71842200  0.42992200  0.66064700  1
  H  H3  1  0.21842200  0.57007800  0.83935300  1
  H  H4  1  0.28157800  0.57007800  0.33935300  1
  H  H5  1  0.78157800  0.42992200  0.16064700  1
  H  H6  1  0.20856000  0.64179000  0.56895100  1
  H  H7  1  0.70856000  0.35821000  0.93104900  1
  H  H8  1  0.79144000  0.35821000  0.43104900  1
  H  H9  1  0.29144000  0.64179000  0.06895100  1
  H  H10  1  0.06764500  0.77353500  0.45863000  1
  H  H11  1  0.56764500  0.22646500  0.04137000  1
  H  H12  1  0.93235500  0.22646500  0.54137000  1
  H  H13  1  0.43235500  0.77353500  0.95863000  1
  Se  Se14  1  0.77305500  0.76786300  0.74308300  1
  Se  Se15  1  0.27305500  0.23213700  0.75691700  1
  Se  Se16  1  0.22694500  0.23213700  0.25691700  1
  Se  Se17  1  0.72694500  0.76786300  0.24308300  1
  O  O18  1  0.21079200  0.71718900  0.47433200  1
  O  O19  1  0.71079200  0.28281100  0.02566800  1
  O  O20  1  0.78920800  0.28281100  0.52566800  1
  O  O21  1  0.28920800  0.71718900  0.97433200  1
  O  O22  1  0.54693800  0.90464500  0.70075400  1
  O  O23  1  0.04693800  0.09535500  0.79924600  1
  O  O24  1  0.45306200  0.09535500  0.29924600  1
  O  O25  1  0.95306200  0.90464500  0.20075400  1
  O  O26  1  0.77898100  0.79868100  0.92822000  1
  O  O27  1  0.27898100  0.20131900  0.57178000  1
  O  O28  1  0.22101900  0.20131900  0.07178000  1
  O  O29  1  0.72101900  0.79868100  0.42822000  1
  O  O30  1  0.66570400  0.50459700  0.75085500  1
  O  O31  1  0.16570400  0.49540300  0.74914500  1
  O  O32  1  0.33429600  0.49540300  0.24914500  1
  O  O33  1  0.83429600  0.50459700  0.25085500  1
