# generated using pymatgen
data_SiO2
_symmetry_space_group_name_H-M   'P 1'
_cell_length_a   8.73547900
_cell_length_b   8.79443335
_cell_length_c   16.72152801
_cell_angle_alpha   91.34096672
_cell_angle_beta   89.99516868
_cell_angle_gamma   119.77440637
_symmetry_Int_Tables_number   1
_chemical_formula_structural   SiO2
_chemical_formula_sum   'Si24 O48'
_cell_volume   1114.61942119
_cell_formula_units_Z   24
loop_
 _symmetry_equiv_pos_site_id
 _symmetry_equiv_pos_as_xyz
  1  'x, y, z'
loop_
 _atom_site_type_symbol
 _atom_site_label
 _atom_site_symmetry_multiplicity
 _atom_site_fract_x
 _atom_site_fract_y
 _atom_site_fract_z
 _atom_site_occupancy
  Si  Si0  1  0.68723000  0.61259500  0.83524700  1
  Si  Si1  1  0.33203300  0.93569200  0.81673200  1
  Si  Si2  1  0.00483300  0.29550800  0.84913700  1
  Si  Si3  1  0.02201200  0.63126300  0.91422400  1
  Si  Si4  1  0.66057600  0.94089400  0.88846100  1
  Si  Si5  1  0.34482800  0.27317000  0.88646500  1
  Si  Si6  1  0.63705800  0.61272700  0.64809200  1
  Si  Si7  1  0.94935300  0.59969900  0.56528100  1
  Si  Si8  1  0.28274200  0.93338000  0.62948200  1
  Si  Si9  1  0.64303500  0.95689100  0.59192600  1
  Si  Si10  1  0.95567300  0.29652100  0.66146700  1
  Si  Si11  1  0.28285300  0.28382200  0.59370900  1
  Si  Si12  1  0.99619400  0.59612000  0.37800800  1
  Si  Si13  1  0.69129900  0.95478900  0.40439500  1
  Si  Si14  1  0.33252700  0.28323200  0.40648000  1
  Si  Si15  1  0.66225600  0.61208300  0.33209800  1
  Si  Si16  1  0.34762800  0.95345900  0.35043800  1
  Si  Si17  1  0.00849800  0.26642000  0.31827300  1
  Si  Si18  1  0.61446700  0.61539600  0.14516500  1
  Si  Si19  1  0.97007300  0.62763400  0.10194000  1
  Si  Si20  1  0.30056000  0.95930900  0.16273900  1
  Si  Si21  1  0.60966700  0.94054800  0.07555900  1
  Si  Si22  1  0.95920000  0.26837800  0.13099300  1
  Si  Si23  1  0.29618500  0.27283500  0.07329300  1
  O  O24  1  0.49162700  0.47349400  0.86654400  1
  O  O25  1  0.17158400  0.80955400  0.87430600  1
  O  O26  1  0.81888000  0.14198700  0.88262700  1
  O  O27  1  0.83060400  0.56731100  0.87274300  1
  O  O28  1  0.06882500  0.47415700  0.90319500  1
  O  O29  1  0.49898700  0.90319300  0.82748100  1
  O  O30  1  0.73476400  0.80953000  0.86389700  1
  O  O31  1  0.15256400  0.23534800  0.85527800  1
  O  O32  1  0.39476200  0.13948900  0.83990800  1
  O  O33  1  0.69569600  0.59951800  0.73853000  1
  O  O34  1  0.26387600  0.89157600  0.72431100  1
  O  O35  1  0.98092000  0.33514000  0.75708200  1
  O  O36  1  0.75405600  0.56968700  0.58536200  1
  O  O37  1  0.42929900  0.47144200  0.63319400  1
  O  O38  1  0.99564800  0.47613000  0.61890700  1
  O  O39  1  0.43538000  0.90078300  0.59080700  1
  O  O40  1  0.09641700  0.80390800  0.58385800  1
  O  O41  1  0.67024300  0.80912800  0.63573800  1
  O  O42  1  0.09058200  0.23224100  0.62922000  1
  O  O43  1  0.75413300  0.14219300  0.64167500  1
  O  O44  1  0.33267400  0.13516600  0.61663600  1
  O  O45  1  0.95052100  0.54933500  0.47148000  1
  O  O46  1  0.71416200  0.97871400  0.50091000  1
  O  O47  1  0.27583800  0.29826100  0.49736300  1
  O  O48  1  0.82046300  0.56504800  0.32977400  1
  O  O49  1  0.06326300  0.46961100  0.33778700  1
  O  O50  1  0.48990200  0.89645300  0.37806000  1
  O  O51  1  0.73767100  0.80529600  0.37415100  1
  O  O52  1  0.16625200  0.23134000  0.34638100  1
  O  O53  1  0.38776400  0.13177700  0.39965700  1
  O  O54  1  0.49863600  0.47089900  0.38395500  1
  O  O55  1  0.15072800  0.79842200  0.37088700  1
  O  O56  1  0.82703500  0.14020700  0.36471400  1
  O  O57  1  0.59377300  0.60965500  0.24166900  1
  O  O58  1  0.36658200  0.99075900  0.25531100  1
  O  O59  1  0.97764400  0.22322900  0.22290500  1
  O  O60  1  0.76489800  0.56783000  0.11849100  1
  O  O61  1  0.42671600  0.47393000  0.10417200  1
  O  O62  1  0.00684700  0.47116100  0.12647000  1
  O  O63  1  0.41993900  0.90138400  0.10969000  1
  O  O64  1  0.09537300  0.80301600  0.15622200  1
  O  O65  1  0.66839500  0.81004600  0.11537200  1
  O  O66  1  0.09339900  0.23428000  0.07547900  1
  O  O67  1  0.75868400  0.14218200  0.09779600  1
  O  O68  1  0.32129000  0.14155300  0.13139000  1
  O  O69  1  0.01516700  0.67361600  0.00852200  1
  O  O70  1  0.58774200  0.90705800  0.97937900  1
  O  O71  1  0.34261600  0.24319900  0.98221200  1
