# generated using pymatgen
data_CaB3H13O12
_symmetry_space_group_name_H-M   'P 1'
_cell_length_a   12.11318000
_cell_length_b   8.39379500
_cell_length_c   10.66701792
_cell_angle_alpha   65.80358239
_cell_angle_beta   90.00000000
_cell_angle_gamma   90.00000000
_symmetry_Int_Tables_number   1
_chemical_formula_structural   CaB3H13O12
_chemical_formula_sum   'Ca4 B12 H52 O48'
_cell_volume   989.29038931
_cell_formula_units_Z   4
loop_
 _symmetry_equiv_pos_site_id
 _symmetry_equiv_pos_as_xyz
  1  'x, y, z'
loop_
 _atom_site_type_symbol
 _atom_site_label
 _atom_site_symmetry_multiplicity
 _atom_site_fract_x
 _atom_site_fract_y
 _atom_site_fract_z
 _atom_site_occupancy
  Ca  Ca0  1  0.87127100  0.83891000  0.02056100  1
  Ca  Ca1  1  0.62872900  0.83891000  0.52056100  1
  Ca  Ca2  1  0.12872900  0.16109000  0.97943900  1
  Ca  Ca3  1  0.37127100  0.16109000  0.47943900  1
  B  B4  1  0.10762400  0.83358000  0.92011300  1
  B  B5  1  0.39237600  0.83358000  0.42011300  1
  B  B6  1  0.89237600  0.16642000  0.07988700  1
  B  B7  1  0.60762400  0.16642000  0.57988700  1
  B  B8  1  0.96250000  0.02685400  0.73665300  1
  B  B9  1  0.53750000  0.02685400  0.23665300  1
  B  B10  1  0.03750000  0.97314600  0.26334700  1
  B  B11  1  0.46250000  0.97314600  0.76334700  1
  B  B12  1  0.07305100  0.79499400  0.70460100  1
  B  B13  1  0.42694900  0.79499400  0.20460100  1
  B  B14  1  0.92694900  0.20500600  0.29539900  1
  B  B15  1  0.57305100  0.20500600  0.79539900  1
  H  H16  1  0.25712000  0.82435900  0.02382700  1
  H  H17  1  0.24288000  0.82435900  0.52382700  1
  H  H18  1  0.74288000  0.17564100  0.97617300  1
  H  H19  1  0.75712000  0.17564100  0.47617300  1
  H  H20  1  0.09784600  0.67759800  0.13144100  1
  H  H21  1  0.40215400  0.67759800  0.63144100  1
  H  H22  1  0.90215400  0.32240200  0.86855900  1
  H  H23  1  0.59784600  0.32240200  0.36855900  1
  H  H24  1  0.79334000  0.03822300  0.70749100  1
  H  H25  1  0.70666000  0.03822300  0.20749100  1
  H  H26  1  0.20666000  0.96177700  0.29250900  1
  H  H27  1  0.29334000  0.96177700  0.79250900  1
  H  H28  1  0.93483500  0.29257200  0.64981600  1
  H  H29  1  0.56516500  0.29257200  0.14981600  1
  H  H30  1  0.06516500  0.70742800  0.35018400  1
  H  H31  1  0.43483500  0.70742800  0.85018400  1
  H  H32  1  0.06205400  0.74910100  0.53257500  1
  H  H33  1  0.43794600  0.74910100  0.03257500  1
  H  H34  1  0.93794600  0.25089900  0.46742500  1
  H  H35  1  0.56205400  0.25089900  0.96742500  1
  H  H36  1  0.62202300  0.83892700  0.09077600  1
  H  H37  1  0.87797700  0.83892700  0.59077600  1
  H  H38  1  0.37797700  0.16107300  0.90922400  1
  H  H39  1  0.12202300  0.16107300  0.40922400  1
  H  H40  1  0.61792500  0.79512900  0.96334000  1
  H  H41  1  0.88207500  0.79512900  0.46334000  1
  H  H42  1  0.38207500  0.20487100  0.03666000  1
  H  H43  1  0.11792500  0.20487100  0.53666000  1
  H  H44  1  0.90615100  0.69077500  0.30947200  1
  H  H45  1  0.59384900  0.69077500  0.80947200  1
  H  H46  1  0.09384900  0.30922500  0.69052800  1
  H  H47  1  0.40615100  0.30922500  0.19052800  1
  H  H48  1  0.86344400  0.51743200  0.30075800  1
  H  H49  1  0.63655600  0.51743200  0.80075800  1
  H  H50  1  0.13655600  0.48256800  0.69924200  1
  H  H51  1  0.36344400  0.48256800  0.19924200  1
  H  H52  1  0.88742400  0.50780900  0.95868300  1
  H  H53  1  0.61257600  0.50780900  0.45868300  1
  H  H54  1  0.11257600  0.49219100  0.04131700  1
  H  H55  1  0.38742400  0.49219100  0.54131700  1
  H  H56  1  0.78982000  0.62635000  0.87125900  1
  H  H57  1  0.71018000  0.62635000  0.37125900  1
  H  H58  1  0.21018000  0.37365000  0.12874100  1
  H  H59  1  0.28982000  0.37365000  0.62874100  1
  H  H60  1  0.76460800  0.35880600  0.68356900  1
  H  H61  1  0.73539200  0.35880600  0.18356900  1
  H  H62  1  0.23539200  0.64119400  0.31643100  1
  H  H63  1  0.26460800  0.64119400  0.81643100  1
  H  H64  1  0.83117100  0.53742600  0.63808600  1
  H  H65  1  0.66882900  0.53742600  0.13808600  1
  H  H66  1  0.16882900  0.46257400  0.36191400  1
  H  H67  1  0.33117100  0.46257400  0.86191400  1
  O  O68  1  0.20887700  0.90784400  0.95365200  1
  O  O69  1  0.29112300  0.90784400  0.45365200  1
  O  O70  1  0.79112300  0.09215600  0.04634800  1
  O  O71  1  0.70887700  0.09215600  0.54634800  1
  O  O72  1  0.05724600  0.69608400  0.04633500  1
  O  O73  1  0.44275400  0.69608400  0.54633500  1
  O  O74  1  0.94275400  0.30391600  0.95366500  1
  O  O75  1  0.55724600  0.30391600  0.45366500  1
  O  O76  1  0.84762600  0.01316600  0.78205400  1
  O  O77  1  0.65237400  0.01316600  0.28205400  1
  O  O78  1  0.15237400  0.98683400  0.21794600  1
  O  O79  1  0.34762600  0.98683400  0.71794600  1
  O  O80  1  0.98714400  0.21105400  0.63235900  1
  O  O81  1  0.51285600  0.21105400  0.13235900  1
  O  O82  1  0.01285600  0.78894600  0.36764100  1
  O  O83  1  0.48714400  0.78894600  0.86764100  1
  O  O84  1  0.10422100  0.71075900  0.62084300  1
  O  O85  1  0.39577900  0.71075900  0.12084300  1
  O  O86  1  0.89577900  0.28924100  0.37915700  1
  O  O87  1  0.60422100  0.28924100  0.87915700  1
  O  O88  1  0.66678600  0.78449100  0.04002900  1
  O  O89  1  0.83321400  0.78449100  0.54002900  1
  O  O90  1  0.33321400  0.21550900  0.95997100  1
  O  O91  1  0.16678600  0.21550900  0.45997100  1
  O  O92  1  0.84854400  0.64441300  0.26577200  1
  O  O93  1  0.65145600  0.64441300  0.76577200  1
  O  O94  1  0.15145600  0.35558700  0.73422800  1
  O  O95  1  0.34854400  0.35558700  0.23422800  1
  O  O96  1  0.84522000  0.61600100  0.94135100  1
  O  O97  1  0.65478000  0.61600100  0.44135100  1
  O  O98  1  0.15478000  0.38399900  0.05864900  1
  O  O99  1  0.34522000  0.38399900  0.55864900  1
  O  O100  1  0.83722600  0.40905400  0.69035800  1
  O  O101  1  0.66277400  0.40905400  0.19035800  1
  O  O102  1  0.16277400  0.59094600  0.30964200  1
  O  O103  1  0.33722600  0.59094600  0.80964200  1
  O  O104  1  0.03016400  0.98143400  0.86155600  1
  O  O105  1  0.46983600  0.98143400  0.36155600  1
  O  O106  1  0.96983600  0.01856600  0.13844400  1
  O  O107  1  0.53016400  0.01856600  0.63844400  1
  O  O108  1  0.13387200  0.75564800  0.82106600  1
  O  O109  1  0.36612800  0.75564800  0.32106600  1
  O  O110  1  0.86612800  0.24435200  0.17893400  1
  O  O111  1  0.63387200  0.24435200  0.67893400  1
  O  O112  1  0.98684100  0.91073700  0.66566000  1
  O  O113  1  0.51315900  0.91073700  0.16566000  1
  O  O114  1  0.01315900  0.08926300  0.33434000  1
  O  O115  1  0.48684100  0.08926300  0.83434000  1
