# generated using pymatgen
data_P2H4PbO8
_symmetry_space_group_name_H-M   'P 1'
_cell_length_a   5.97266600
_cell_length_b   8.31890443
_cell_length_c   8.40790661
_cell_angle_alpha   105.39614377
_cell_angle_beta   110.29088490
_cell_angle_gamma   95.53994178
_symmetry_Int_Tables_number   1
_chemical_formula_structural   P2H4PbO8
_chemical_formula_sum   'P4 H8 Pb2 O16'
_cell_volume   369.46154326
_cell_formula_units_Z   2
loop_
 _symmetry_equiv_pos_site_id
 _symmetry_equiv_pos_as_xyz
  1  'x, y, z'
loop_
 _atom_site_type_symbol
 _atom_site_label
 _atom_site_symmetry_multiplicity
 _atom_site_fract_x
 _atom_site_fract_y
 _atom_site_fract_z
 _atom_site_occupancy
  P  P0  1  0.68552500  0.22131000  0.80873500  1
  P  P1  1  0.31447500  0.77869000  0.19126500  1
  P  P2  1  0.01968900  0.75125700  0.66409600  1
  P  P3  1  0.98031100  0.24874300  0.33590400  1
  H  H4  1  0.78299000  0.74908400  0.38811400  1
  H  H5  1  0.21701000  0.25091600  0.61188600  1
  H  H6  1  0.79037300  0.49341300  0.55284800  1
  H  H7  1  0.20962700  0.50658700  0.44715200  1
  H  H8  1  0.80640800  0.16895900  0.58625000  1
  H  H9  1  0.19359200  0.83104100  0.41375000  1
  H  H10  1  0.55352500  0.45492000  0.77985000  1
  H  H11  1  0.44647500  0.54508000  0.22015000  1
  Pb  Pb12  1  0.69881100  0.83929200  0.94730600  1
  Pb  Pb13  1  0.30118900  0.16070800  0.05269400  1
  O  O14  1  0.95520200  0.78492900  0.47466500  1
  O  O15  1  0.04479800  0.21507100  0.52533500  1
  O  O16  1  0.25544500  0.68967700  0.70053800  1
  O  O17  1  0.74455500  0.31032300  0.29946200  1
  O  O18  1  0.00266600  0.90707900  0.80147700  1
  O  O19  1  0.99733400  0.09292100  0.19852300  1
  O  O20  1  0.55110600  0.08174400  0.85122100  1
  O  O21  1  0.44889400  0.91825600  0.14877900  1
  O  O22  1  0.79429000  0.60623100  0.63209800  1
  O  O23  1  0.20571000  0.39376900  0.36790200  1
  O  O24  1  0.65063000  0.16543100  0.60489100  1
  O  O25  1  0.34937000  0.83456900  0.39510900  1
  O  O26  1  0.94607700  0.30026100  0.92993400  1
  O  O27  1  0.05392300  0.69973900  0.07006600  1
  O  O28  1  0.49873900  0.35461300  0.80661100  1
  O  O29  1  0.50126100  0.64538700  0.19338900  1
