# generated using pymatgen
data_BH10C2N5O3
_symmetry_space_group_name_H-M   'P 1'
_cell_length_a   6.96573200
_cell_length_b   9.63846500
_cell_length_c   10.97972300
_cell_angle_alpha   90.00000000
_cell_angle_beta   90.00000000
_cell_angle_gamma   90.00000000
_symmetry_Int_Tables_number   1
_chemical_formula_structural   BH10C2N5O3
_chemical_formula_sum   'B4 H40 C8 N20 O12'
_cell_volume   737.16722812
_cell_formula_units_Z   4
loop_
 _symmetry_equiv_pos_site_id
 _symmetry_equiv_pos_as_xyz
  1  'x, y, z'
loop_
 _atom_site_type_symbol
 _atom_site_label
 _atom_site_symmetry_multiplicity
 _atom_site_fract_x
 _atom_site_fract_y
 _atom_site_fract_z
 _atom_site_occupancy
  B  B0  1  0.85595200  0.05888700  0.93670800  1
  B  B1  1  0.64404800  0.94111300  0.43670800  1
  B  B2  1  0.35595200  0.44111300  0.06329200  1
  B  B3  1  0.14404800  0.55888700  0.56329200  1
  H  H4  1  0.87183200  0.19187300  0.77144500  1
  H  H5  1  0.62816800  0.80812700  0.27144500  1
  H  H6  1  0.37183200  0.30812700  0.22855500  1
  H  H7  1  0.12816800  0.69187300  0.72855500  1
  H  H8  1  0.83408400  0.03009200  0.13769800  1
  H  H9  1  0.66591600  0.96990800  0.63769800  1
  H  H10  1  0.33408400  0.46990800  0.86230200  1
  H  H11  1  0.16591600  0.53009200  0.36230200  1
  H  H12  1  0.14442300  0.02484500  0.93322000  1
  H  H13  1  0.35557700  0.97515500  0.43322000  1
  H  H14  1  0.64442300  0.47515500  0.06678000  1
  H  H15  1  0.85557700  0.52484500  0.56678000  1
  H  H16  1  0.56980000  0.02869600  0.91387300  1
  H  H17  1  0.93020000  0.97130400  0.41387300  1
  H  H18  1  0.06980000  0.47130400  0.08612700  1
  H  H19  1  0.43020000  0.52869600  0.58612700  1
  H  H20  1  0.90261000  0.42594800  0.75419200  1
  H  H21  1  0.59739000  0.57405200  0.25419200  1
  H  H22  1  0.40261000  0.07405200  0.24580800  1
  H  H23  1  0.09739000  0.92594800  0.74580800  1
  H  H24  1  0.90728300  0.52784900  0.88251000  1
  H  H25  1  0.59271700  0.47215100  0.38251000  1
  H  H26  1  0.40728300  0.97215100  0.11749000  1
  H  H27  1  0.09271700  0.02784900  0.61749000  1
  H  H28  1  0.83874300  0.35866000  0.26141500  1
  H  H29  1  0.66125700  0.64134000  0.76141500  1
  H  H30  1  0.33874300  0.14134000  0.73858500  1
  H  H31  1  0.16125700  0.85866000  0.23858500  1
  H  H32  1  0.83444500  0.17913100  0.29359000  1
  H  H33  1  0.66555500  0.82086900  0.79359000  1
  H  H34  1  0.33444500  0.32086900  0.70641000  1
  H  H35  1  0.16555500  0.67913100  0.20641000  1
  H  H36  1  0.45078300  0.20685000  0.41972900  1
  H  H37  1  0.04921700  0.79315000  0.91972900  1
  H  H38  1  0.95078300  0.29315000  0.58027100  1
  H  H39  1  0.54921700  0.70685000  0.08027100  1
  H  H40  1  0.36377500  0.34709700  0.47564100  1
  H  H41  1  0.13622500  0.65290300  0.97564100  1
  H  H42  1  0.86377500  0.15290300  0.52435900  1
  H  H43  1  0.63622500  0.84709700  0.02435900  1
  C  C44  1  0.86091600  0.32273000  0.91533100  1
  C  C45  1  0.63908400  0.67727000  0.41533100  1
  C  C46  1  0.36091600  0.17727000  0.08466900  1
  C  C47  1  0.13908400  0.82273000  0.58466900  1
  C  C48  1  0.84903200  0.23463400  0.11230900  1
  C  C49  1  0.65096800  0.76536600  0.61230900  1
  C  C50  1  0.34903200  0.26536600  0.88769100  1
  C  C51  1  0.15096800  0.73463400  0.38769100  1
  N  N52  1  0.86267800  0.19663600  0.86526700  1
  N  N53  1  0.63732200  0.80336400  0.36526700  1
  N  N54  1  0.36267800  0.30336400  0.13473300  1
  N  N55  1  0.13732200  0.69663600  0.63473300  1
  N  N56  1  0.85495600  0.34685100  0.03749200  1
  N  N57  1  0.64504400  0.65314900  0.53749200  1
  N  N58  1  0.35495600  0.15314900  0.96250800  1
  N  N59  1  0.14504400  0.84685100  0.46250800  1
  N  N60  1  0.84345500  0.10415900  0.07168400  1
  N  N61  1  0.65654500  0.89584100  0.57168400  1
  N  N62  1  0.34345500  0.39584100  0.92831600  1
  N  N63  1  0.15654500  0.60415900  0.42831600  1
  N  N64  1  0.86155800  0.43711900  0.84354000  1
  N  N65  1  0.63844200  0.56288100  0.34354000  1
  N  N66  1  0.36155800  0.06288100  0.15646000  1
  N  N67  1  0.13844200  0.93711900  0.65646000  1
  N  N68  1  0.85158300  0.25959500  0.23266600  1
  N  N69  1  0.64841700  0.74040500  0.73266600  1
  N  N70  1  0.35158300  0.24040500  0.76733400  1
  N  N71  1  0.14841700  0.75959500  0.26733400  1
  O  O72  1  0.02630000  0.97177400  0.91337300  1
  O  O73  1  0.47370000  0.02822600  0.41337400  1
  O  O74  1  0.52630000  0.52822600  0.08662700  1
  O  O75  1  0.97370000  0.47177400  0.58662700  1
  O  O76  1  0.68830000  0.97330500  0.90200300  1
  O  O77  1  0.81170000  0.02669500  0.40200300  1
  O  O78  1  0.18830000  0.52669500  0.09799700  1
  O  O79  1  0.31170000  0.47330500  0.59799700  1
  O  O80  1  0.42465200  0.30648800  0.40233300  1
  O  O81  1  0.07534800  0.69351200  0.90233300  1
  O  O82  1  0.92465200  0.19351200  0.59766700  1
  O  O83  1  0.57534800  0.80648800  0.09766700  1
