# generated using pymatgen
data_KAlP2H4O9
_symmetry_space_group_name_H-M   'P 1'
_cell_length_a   9.20816300
_cell_length_b   10.11100200
_cell_length_c   16.38954732
_cell_angle_alpha   79.93871761
_cell_angle_beta   90.00000000
_cell_angle_gamma   90.00000000
_symmetry_Int_Tables_number   1
_chemical_formula_structural   KAlP2H4O9
_chemical_formula_sum   'K8 Al8 P16 H32 O72'
_cell_volume   1502.46183839
_cell_formula_units_Z   8
loop_
 _symmetry_equiv_pos_site_id
 _symmetry_equiv_pos_as_xyz
  1  'x, y, z'
loop_
 _atom_site_type_symbol
 _atom_site_label
 _atom_site_symmetry_multiplicity
 _atom_site_fract_x
 _atom_site_fract_y
 _atom_site_fract_z
 _atom_site_occupancy
  K  K0  1  0.94695700  0.89082500  0.88897900  1
  K  K1  1  0.44695700  0.10917500  0.61102100  1
  K  K2  1  0.05304300  0.10917500  0.11102100  1
  K  K3  1  0.55304300  0.89082500  0.38897900  1
  K  K4  1  0.15554000  0.22827700  0.77072800  1
  K  K5  1  0.65554000  0.77172300  0.72927200  1
  K  K6  1  0.84446000  0.77172300  0.22927200  1
  K  K7  1  0.34446000  0.22827700  0.27072800  1
  Al  Al8  1  0.31211000  0.58988700  0.80432700  1
  Al  Al9  1  0.81211000  0.41011300  0.69567300  1
  Al  Al10  1  0.68789000  0.41011300  0.19567300  1
  Al  Al11  1  0.18789000  0.58988700  0.30432700  1
  Al  Al12  1  0.58275100  0.07288000  0.85094000  1
  Al  Al13  1  0.08275100  0.92712000  0.64906000  1
  Al  Al14  1  0.41724900  0.92712000  0.14906000  1
  Al  Al15  1  0.91724900  0.07288000  0.35094000  1
  P  P16  1  0.83009400  0.28632300  0.89096200  1
  P  P17  1  0.33009400  0.71367700  0.60903800  1
  P  P18  1  0.16990600  0.71367700  0.10903800  1
  P  P19  1  0.66990600  0.28632300  0.39096200  1
  P  P20  1  0.98400200  0.64206000  0.76111100  1
  P  P21  1  0.48400200  0.35794000  0.73888900  1
  P  P22  1  0.01599800  0.35794000  0.23888900  1
  P  P23  1  0.51599800  0.64206000  0.26111100  1
  P  P24  1  0.30591700  0.90266800  0.80328100  1
  P  P25  1  0.80591700  0.09733200  0.69671900  1
  P  P26  1  0.69408300  0.09733200  0.19671900  1
  P  P27  1  0.19408300  0.90266800  0.30328100  1
  P  P28  1  0.63796300  0.83134700  0.00832300  1
  P  P29  1  0.13796300  0.16865300  0.49167700  1
  P  P30  1  0.36203700  0.16865300  0.99167700  1
  P  P31  1  0.86203700  0.83134700  0.50832300  1
  H  H32  1  0.57422900  0.52421500  0.86235900  1
  H  H33  1  0.07422900  0.47578500  0.63764100  1
  H  H34  1  0.42577100  0.47578500  0.13764100  1
  H  H35  1  0.92577100  0.52421500  0.36235900  1
  H  H36  1  0.51379700  0.64000600  0.90888100  1
  H  H37  1  0.01379700  0.35999400  0.59111900  1
  H  H38  1  0.48620300  0.35999400  0.09111900  1
  H  H39  1  0.98620300  0.64000600  0.40888100  1
  H  H40  1  0.22271700  0.55475100  0.96242700  1
  H  H41  1  0.72271700  0.44524900  0.53757300  1
  H  H42  1  0.77728300  0.44524900  0.03757300  1
  H  H43  1  0.27728300  0.55475100  0.46242700  1
  H  H44  1  0.75972800  0.59003800  0.06664900  1
  H  H45  1  0.25972800  0.40996200  0.43335100  1
  H  H46  1  0.24027200  0.40996200  0.93335100  1
  H  H47  1  0.74027200  0.59003800  0.56664900  1
  H  H48  1  0.04818600  0.21045900  0.94155100  1
  H  H49  1  0.54818600  0.78954100  0.55844900  1
  H  H50  1  0.95181400  0.78954100  0.05844900  1
  H  H51  1  0.45181400  0.21045900  0.44155100  1
  H  H52  1  0.89121300  0.54100100  0.88372600  1
  H  H53  1  0.39121300  0.45899900  0.61627400  1
  H  H54  1  0.10878700  0.45899900  0.11627400  1
  H  H55  1  0.60878700  0.54100100  0.38372600  1
  H  H56  1  0.70330300  0.97943400  0.10071600  1
  H  H57  1  0.20330300  0.02056600  0.39928400  1
  H  H58  1  0.29669700  0.02056600  0.89928400  1
  H  H59  1  0.79669700  0.97943400  0.60071600  1
  H  H60  1  0.42852800  0.73516100  0.02966900  1
  H  H61  1  0.92852800  0.26483900  0.47033100  1
  H  H62  1  0.57147200  0.26483900  0.97033100  1
  H  H63  1  0.07147200  0.73516100  0.52966900  1
  O  O64  1  0.82165000  0.40671100  0.93568600  1
  O  O65  1  0.32165000  0.59328900  0.56431400  1
  O  O66  1  0.17835000  0.59328900  0.06431400  1
  O  O67  1  0.67835000  0.40671100  0.43568600  1
  O  O68  1  0.94695900  0.17660800  0.93461700  1
  O  O69  1  0.44695900  0.82339200  0.56538300  1
  O  O70  1  0.05304100  0.82339200  0.06538300  1
  O  O71  1  0.55304100  0.17660800  0.43461700  1
  O  O72  1  0.88372000  0.32565300  0.80074400  1
  O  O73  1  0.38372000  0.67434700  0.69925600  1
  O  O74  1  0.11628000  0.67434700  0.19925600  1
  O  O75  1  0.61628000  0.32565300  0.30074400  1
  O  O76  1  0.68439100  0.20864000  0.89916700  1
  O  O77  1  0.18439100  0.79136000  0.60083300  1
  O  O78  1  0.31560900  0.79136000  0.10083300  1
  O  O79  1  0.81560900  0.20864000  0.39916700  1
  O  O80  1  0.12839500  0.56660900  0.76113400  1
  O  O81  1  0.62839500  0.43339100  0.73886600  1
  O  O82  1  0.87160500  0.43339100  0.23886600  1
  O  O83  1  0.37160500  0.56660900  0.26113400  1
  O  O84  1  0.87139200  0.58012000  0.70924400  1
  O  O85  1  0.37139200  0.41988000  0.79075600  1
  O  O86  1  0.12860800  0.41988000  0.29075600  1
  O  O87  1  0.62860800  0.58012000  0.20924400  1
  O  O88  1  0.99375700  0.79390700  0.73122700  1
  O  O89  1  0.49375700  0.20609300  0.76877300  1
  O  O90  1  0.00624300  0.20609300  0.26877300  1
  O  O91  1  0.50624300  0.79390700  0.23122700  1
  O  O92  1  0.92144200  0.63364600  0.85260700  1
  O  O93  1  0.42144200  0.36635400  0.64739300  1
  O  O94  1  0.07855800  0.36635400  0.14739300  1
  O  O95  1  0.57855800  0.63364600  0.35260700  1
  O  O96  1  0.21965200  0.97918300  0.86618400  1
  O  O97  1  0.71965200  0.02081700  0.63381600  1
  O  O98  1  0.78034800  0.02081700  0.13381600  1
  O  O99  1  0.28034800  0.97918300  0.36618400  1
  O  O100  1  0.27907700  0.75350900  0.83530800  1
  O  O101  1  0.77907700  0.24649100  0.66469200  1
  O  O102  1  0.72092300  0.24649100  0.16469200  1
  O  O103  1  0.22092300  0.75350900  0.33530800  1
  O  O104  1  0.46649500  0.94236300  0.80504600  1
  O  O105  1  0.96649500  0.05763700  0.69495400  1
  O  O106  1  0.53350500  0.05763700  0.19495400  1
  O  O107  1  0.03350500  0.94236300  0.30504600  1
  O  O108  1  0.23982300  0.95372400  0.71758600  1
  O  O109  1  0.73982300  0.04627600  0.78241400  1
  O  O110  1  0.76017700  0.04627600  0.28241400  1
  O  O111  1  0.26017700  0.95372400  0.21758600  1
  O  O112  1  0.51678200  0.72189800  0.99542000  1
  O  O113  1  0.01678200  0.27810200  0.50458000  1
  O  O114  1  0.48321800  0.27810200  0.00458000  1
  O  O115  1  0.98321800  0.72189800  0.49542000  1
  O  O116  1  0.77789900  0.75648000  0.03827000  1
  O  O117  1  0.27789900  0.24352000  0.46173000  1
  O  O118  1  0.22210100  0.24352000  0.96173000  1
  O  O119  1  0.72210100  0.75648000  0.53827000  1
  O  O120  1  0.57351200  0.90837800  0.07374400  1
  O  O121  1  0.07351200  0.09162200  0.42625600  1
  O  O122  1  0.42648800  0.09162200  0.92625600  1
  O  O123  1  0.92648800  0.90837800  0.57374400  1
  O  O124  1  0.66562100  0.92639800  0.92669800  1
  O  O125  1  0.16562100  0.07360200  0.57330200  1
  O  O126  1  0.33437900  0.07360200  0.07330200  1
  O  O127  1  0.83437900  0.92639800  0.42669800  1
  O  O128  1  0.51651400  0.60640000  0.85528800  1
  O  O129  1  0.01651400  0.39360000  0.64471200  1
  O  O130  1  0.48348600  0.39360000  0.14471200  1
  O  O131  1  0.98348600  0.60640000  0.35528800  1
  O  O132  1  0.25002400  0.50950800  0.91564000  1
  O  O133  1  0.75002400  0.49049200  0.58436000  1
  O  O134  1  0.74997600  0.49049200  0.08436000  1
  O  O135  1  0.24997600  0.50950800  0.41564000  1
