# generated using pymatgen
data_CoH20S2N6ClO4
_symmetry_space_group_name_H-M   'P 1'
_cell_length_a   13.87590200
_cell_length_b   7.19798700
_cell_length_c   12.88922978
_cell_angle_alpha   89.53374203
_cell_angle_beta   90.00000000
_cell_angle_gamma   90.00000000
_symmetry_Int_Tables_number   1
_chemical_formula_structural   CoH20S2N6ClO4
_chemical_formula_sum   'Co4 H80 S8 N24 Cl4 O16'
_cell_volume   1287.31511224
_cell_formula_units_Z   4
loop_
 _symmetry_equiv_pos_site_id
 _symmetry_equiv_pos_as_xyz
  1  'x, y, z'
loop_
 _atom_site_type_symbol
 _atom_site_label
 _atom_site_symmetry_multiplicity
 _atom_site_fract_x
 _atom_site_fract_y
 _atom_site_fract_z
 _atom_site_occupancy
  Co  Co0  1  0.00000000  0.00000000  0.50000000  1
  Co  Co1  1  0.50000000  0.00000000  0.00000000  1
  Co  Co2  1  0.50000000  0.50000000  0.50000000  1
  Co  Co3  1  0.00000000  0.50000000  0.00000000  1
  H  H4  1  0.92962300  0.97786200  0.67958500  1
  H  H5  1  0.42962300  0.02213800  0.82041500  1
  H  H6  1  0.07037700  0.02213800  0.32041500  1
  H  H7  1  0.57037700  0.97786200  0.17958500  1
  H  H8  1  0.85567300  0.87009600  0.59742700  1
  H  H9  1  0.35567300  0.12990400  0.90257300  1
  H  H10  1  0.14432700  0.12990400  0.40257300  1
  H  H11  1  0.64432700  0.87009600  0.09742700  1
  H  H12  1  0.85339800  0.09998600  0.60714200  1
  H  H13  1  0.35339800  0.90001400  0.89285800  1
  H  H14  1  0.14660200  0.90001400  0.39285800  1
  H  H15  1  0.64660200  0.09998600  0.10714200  1
  H  H16  1  0.01991600  0.69647600  0.60074200  1
  H  H17  1  0.51991600  0.30352400  0.89925800  1
  H  H18  1  0.98008400  0.30352400  0.39925800  1
  H  H19  1  0.48008400  0.69647600  0.10074200  1
  H  H20  1  0.11403300  0.72680600  0.52326100  1
  H  H21  1  0.61403300  0.27319400  0.97673900  1
  H  H22  1  0.88596700  0.27319400  0.47673900  1
  H  H23  1  0.38596700  0.72680600  0.02326100  1
  H  H24  1  0.10842400  0.84331300  0.63161300  1
  H  H25  1  0.60842400  0.15668700  0.86838700  1
  H  H26  1  0.89157600  0.15668700  0.36838700  1
  H  H27  1  0.39157600  0.84331300  0.13161300  1
  H  H28  1  0.11970600  0.25253400  0.54747500  1
  H  H29  1  0.61970600  0.74746600  0.95252500  1
  H  H30  1  0.88029400  0.74746600  0.45252500  1
  H  H31  1  0.38029400  0.25253400  0.04747500  1
  H  H32  1  0.08753400  0.13576000  0.65511000  1
  H  H33  1  0.58753400  0.86424000  0.84489000  1
  H  H34  1  0.91246600  0.86424000  0.34489000  1
  H  H35  1  0.41246600  0.13576000  0.15511000  1
  H  H36  1  0.01412500  0.29119400  0.60469900  1
  H  H37  1  0.51412500  0.70880600  0.89530100  1
  H  H38  1  0.98587500  0.70880600  0.39530100  1
  H  H39  1  0.48587500  0.29119400  0.10469900  1
  H  H40  1  0.48035900  0.49925200  0.69811500  1
  H  H41  1  0.98035900  0.50074800  0.80188500  1
  H  H42  1  0.51964100  0.50074800  0.30188500  1
  H  H43  1  0.01964100  0.49925200  0.19811500  1
  H  H44  1  0.55500300  0.33500700  0.66205200  1
  H  H45  1  0.05500300  0.66499300  0.83794800  1
  H  H46  1  0.44499700  0.66499300  0.33794800  1
  H  H47  1  0.94499700  0.33500700  0.16205200  1
  H  H48  1  0.59358600  0.55099000  0.67080400  1
  H  H49  1  0.09358600  0.44901000  0.82919600  1
  H  H50  1  0.40641400  0.44901000  0.32919600  1
  H  H51  1  0.90641400  0.55099000  0.17080400  1
  H  H52  1  0.58102900  0.80853500  0.53999100  1
  H  H53  1  0.08102900  0.19146500  0.96000900  1
  H  H54  1  0.41897100  0.19146500  0.46000900  1
  H  H55  1  0.91897100  0.80853500  0.03999100  1
  H  H56  1  0.66246200  0.66404300  0.49526700  1
  H  H57  1  0.16246200  0.33595700  0.00473300  1
  H  H58  1  0.33753800  0.33595700  0.50473300  1
  H  H59  1  0.83753800  0.66404300  0.99526700  1
  H  H60  1  0.58618000  0.77041400  0.41394700  1
  H  H61  1  0.08618000  0.22958600  0.08605300  1
  H  H62  1  0.41382000  0.22958600  0.58605300  1
  H  H63  1  0.91382000  0.77041400  0.91394700  1
  H  H64  1  0.64894000  0.29252800  0.52017400  1
  H  H65  1  0.14894000  0.70747200  0.97982600  1
  H  H66  1  0.35106000  0.70747200  0.47982600  1
  H  H67  1  0.85106000  0.29252800  0.02017400  1
  H  H68  1  0.64606500  0.37909000  0.40221000  1
  H  H69  1  0.14606500  0.62091000  0.09779000  1
  H  H70  1  0.35393500  0.62091000  0.59779000  1
  H  H71  1  0.85393500  0.37909000  0.90221000  1
  H  H72  1  0.57391400  0.20423500  0.43231500  1
  H  H73  1  0.07391400  0.79576500  0.06768500  1
  H  H74  1  0.42608600  0.79576500  0.56768500  1
  H  H75  1  0.92608600  0.20423500  0.93231500  1
  H  H76  1  0.75696400  0.93554500  0.79571400  1
  H  H77  1  0.25696400  0.06445500  0.70428600  1
  H  H78  1  0.24303600  0.06445500  0.20428600  1
  H  H79  1  0.74303600  0.93554500  0.29571400  1
  H  H80  1  0.73113400  0.14111700  0.77120000  1
  H  H81  1  0.23113400  0.85888300  0.72880000  1
  H  H82  1  0.26886600  0.85888300  0.22880000  1
  H  H83  1  0.76886600  0.14111700  0.27120000  1
  S  S84  1  0.75873600  0.57839500  0.77398000  1
  S  S85  1  0.25873600  0.42160500  0.72602000  1
  S  S86  1  0.24126400  0.42160500  0.22602000  1
  S  S87  1  0.74126400  0.57839500  0.27398000  1
  S  S88  1  0.81550200  0.49867400  0.63739400  1
  S  S89  1  0.31550200  0.50132600  0.86260600  1
  S  S90  1  0.18449800  0.50132600  0.36260600  1
  S  S91  1  0.68449800  0.49867400  0.13739400  1
  N  N92  1  0.89844800  0.98582300  0.60701700  1
  N  N93  1  0.39844800  0.01417700  0.89298300  1
  N  N94  1  0.10155200  0.01417700  0.39298300  1
  N  N95  1  0.60155200  0.98582300  0.10701700  1
  N  N96  1  0.06728300  0.79401000  0.57178000  1
  N  N97  1  0.56728300  0.20599000  0.92822000  1
  N  N98  1  0.93271700  0.20599000  0.42822000  1
  N  N99  1  0.43271700  0.79401000  0.07178000  1
  N  N100  1  0.06325000  0.18954100  0.58582100  1
  N  N101  1  0.56325000  0.81045900  0.91417900  1
  N  N102  1  0.93675000  0.81045900  0.41417900  1
  N  N103  1  0.43675000  0.18954100  0.08582100  1
  N  N104  1  0.53593900  0.47140100  0.64769100  1
  N  N105  1  0.03593900  0.52859900  0.85230900  1
  N  N106  1  0.46406100  0.52859900  0.35230900  1
  N  N107  1  0.96406100  0.47140100  0.14769100  1
  N  N108  1  0.59228300  0.70686600  0.48513800  1
  N  N109  1  0.09228300  0.29313400  0.01486200  1
  N  N110  1  0.40771700  0.29313400  0.51486200  1
  N  N111  1  0.90771700  0.70686600  0.98513800  1
  N  N112  1  0.60285300  0.32536300  0.46026700  1
  N  N113  1  0.10285300  0.67463700  0.03973300  1
  N  N114  1  0.39714700  0.67463700  0.53973300  1
  N  N115  1  0.89714700  0.32536300  0.96026700  1
  Cl  Cl116  1  0.53728600  0.00785500  0.67581900  1
  Cl  Cl117  1  0.03728600  0.99214500  0.82418100  1
  Cl  Cl118  1  0.46271400  0.99214500  0.32418100  1
  Cl  Cl119  1  0.96271400  0.00785500  0.17581900  1
  O  O120  1  0.92286500  0.48644900  0.64643000  1
  O  O121  1  0.42286500  0.51355100  0.85357000  1
  O  O122  1  0.07713500  0.51355100  0.35357000  1
  O  O123  1  0.57713500  0.48644900  0.14643000  1
  O  O124  1  0.78995500  0.63880000  0.55560300  1
  O  O125  1  0.28995500  0.36120000  0.94439700  1
  O  O126  1  0.21004500  0.36120000  0.44439700  1
  O  O127  1  0.71004500  0.63880000  0.05560300  1
  O  O128  1  0.77460900  0.31397800  0.60910600  1
  O  O129  1  0.27460900  0.68602200  0.89089400  1
  O  O130  1  0.22539100  0.68602200  0.39089400  1
  O  O131  1  0.72539100  0.31397800  0.10910600  1
  O  O132  1  0.74942800  0.05836400  0.82802600  1
  O  O133  1  0.24942800  0.94163600  0.67197400  1
  O  O134  1  0.25057200  0.94163600  0.17197400  1
  O  O135  1  0.75057200  0.05836400  0.32802600  1
