# generated using pymatgen
data_RbNa3Mo2H18O17
_symmetry_space_group_name_H-M   'P 1'
_cell_length_a   9.72382571
_cell_length_b   9.72382571
_cell_length_c   12.29869200
_cell_angle_alpha   90.00000000
_cell_angle_beta   90.00000000
_cell_angle_gamma   119.99999801
_symmetry_Int_Tables_number   1
_chemical_formula_structural   RbNa3Mo2H18O17
_chemical_formula_sum   'Rb2 Na6 Mo4 H36 O34'
_cell_volume   1007.07982909
_cell_formula_units_Z   2
loop_
 _symmetry_equiv_pos_site_id
 _symmetry_equiv_pos_as_xyz
  1  'x, y, z'
loop_
 _atom_site_type_symbol
 _atom_site_label
 _atom_site_symmetry_multiplicity
 _atom_site_fract_x
 _atom_site_fract_y
 _atom_site_fract_z
 _atom_site_occupancy
  Rb  Rb0  1  0.00000000  0.00000000  0.25000000  1
  Rb  Rb1  1  0.00000000  0.00000000  0.75000000  1
  Na  Na2  1  0.16662200  0.70959800  0.75000000  1
  Na  Na3  1  0.54297600  0.83337800  0.75000000  1
  Na  Na4  1  0.29040200  0.45702400  0.75000000  1
  Na  Na5  1  0.83337800  0.29040200  0.25000000  1
  Na  Na6  1  0.45702400  0.16662200  0.25000000  1
  Na  Na7  1  0.70959800  0.54297600  0.25000000  1
  Mo  Mo8  1  0.33333300  0.66666700  0.02396500  1
  Mo  Mo9  1  0.66666700  0.33333300  0.52396500  1
  Mo  Mo10  1  0.66666700  0.33333300  0.97603500  1
  Mo  Mo11  1  0.33333300  0.66666700  0.47603500  1
  H  H12  1  0.42061100  0.04983700  0.81397100  1
  H  H13  1  0.62922700  0.57938900  0.81397100  1
  H  H14  1  0.95016300  0.37077300  0.81397100  1
  H  H15  1  0.57938900  0.95016300  0.31397100  1
  H  H16  1  0.37077300  0.42061100  0.31397100  1
  H  H17  1  0.04983700  0.62922700  0.31397100  1
  H  H18  1  0.57938900  0.95016300  0.18602900  1
  H  H19  1  0.37077300  0.42061100  0.18602900  1
  H  H20  1  0.04983700  0.62922700  0.18602900  1
  H  H21  1  0.42061100  0.04983700  0.68602900  1
  H  H22  1  0.62922700  0.57938900  0.68602900  1
  H  H23  1  0.95016300  0.37077300  0.68602900  1
  H  H24  1  0.74790000  0.66434600  0.04877300  1
  H  H25  1  0.91644600  0.25210000  0.04877300  1
  H  H26  1  0.33565400  0.08355400  0.04877300  1
  H  H27  1  0.25210000  0.33565400  0.54877300  1
  H  H28  1  0.08355400  0.74790000  0.54877300  1
  H  H29  1  0.66434600  0.91644600  0.54877300  1
  H  H30  1  0.25210000  0.33565400  0.95122700  1
  H  H31  1  0.08355400  0.74790000  0.95122700  1
  H  H32  1  0.66434600  0.91644600  0.95122700  1
  H  H33  1  0.74790000  0.66434600  0.45122700  1
  H  H34  1  0.91644600  0.25210000  0.45122700  1
  H  H35  1  0.33565400  0.08355400  0.45122700  1
  H  H36  1  0.67611500  0.76087400  0.10014400  1
  H  H37  1  0.08475800  0.32388500  0.10014400  1
  H  H38  1  0.23912600  0.91524200  0.10014400  1
  H  H39  1  0.32388500  0.23912600  0.60014400  1
  H  H40  1  0.91524200  0.67611500  0.60014400  1
  H  H41  1  0.76087400  0.08475800  0.60014400  1
  H  H42  1  0.32388500  0.23912600  0.89985600  1
  H  H43  1  0.91524200  0.67611500  0.89985600  1
  H  H44  1  0.76087400  0.08475800  0.89985600  1
  H  H45  1  0.67611500  0.76087400  0.39985600  1
  H  H46  1  0.08475800  0.32388500  0.39985600  1
  H  H47  1  0.23912600  0.91524200  0.39985600  1
  O  O48  1  0.33333300  0.66666700  0.87914600  1
  O  O49  1  0.66666700  0.33333300  0.37914600  1
  O  O50  1  0.66666700  0.33333300  0.12085400  1
  O  O51  1  0.33333300  0.66666700  0.62085400  1
  O  O52  1  0.18621000  0.71466700  0.07106500  1
  O  O53  1  0.52845800  0.81379000  0.07106500  1
  O  O54  1  0.28533300  0.47154200  0.07106500  1
  O  O55  1  0.81379000  0.28533300  0.57106500  1
  O  O56  1  0.47154200  0.18621000  0.57106500  1
  O  O57  1  0.71466700  0.52845800  0.57106500  1
  O  O58  1  0.81379000  0.28533300  0.92893500  1
  O  O59  1  0.47154200  0.18621000  0.92893500  1
  O  O60  1  0.71466700  0.52845800  0.92893500  1
  O  O61  1  0.18621000  0.71466700  0.42893500  1
  O  O62  1  0.52845800  0.81379000  0.42893500  1
  O  O63  1  0.28533300  0.47154200  0.42893500  1
  O  O64  1  0.39347000  0.97924500  0.75000000  1
  O  O65  1  0.58577500  0.60653000  0.75000000  1
  O  O66  1  0.02075500  0.41422500  0.75000000  1
  O  O67  1  0.60653000  0.02075500  0.25000000  1
  O  O68  1  0.41422500  0.39347000  0.25000000  1
  O  O69  1  0.97924500  0.58577500  0.25000000  1
  O  O70  1  0.75676900  0.72876300  0.11298300  1
  O  O71  1  0.97199300  0.24323100  0.11298300  1
  O  O72  1  0.27123700  0.02800700  0.11298300  1
  O  O73  1  0.24323100  0.27123700  0.61298300  1
  O  O74  1  0.02800700  0.75676900  0.61298300  1
  O  O75  1  0.72876300  0.97199300  0.61298300  1
  O  O76  1  0.24323100  0.27123700  0.88701700  1
  O  O77  1  0.02800700  0.75676900  0.88701700  1
  O  O78  1  0.72876300  0.97199300  0.88701700  1
  O  O79  1  0.75676900  0.72876300  0.38701700  1
  O  O80  1  0.97199300  0.24323100  0.38701700  1
  O  O81  1  0.27123700  0.02800700  0.38701700  1
