# generated using pymatgen
data_KCaCrH10C6O17
_symmetry_space_group_name_H-M   'P 1'
_cell_length_a   11.31903700
_cell_length_b   11.18186400
_cell_length_c   16.20144927
_cell_angle_alpha   56.56038720
_cell_angle_beta   90.00000000
_cell_angle_gamma   90.00000000
_symmetry_Int_Tables_number   1
_chemical_formula_structural   KCaCrH10C6O17
_chemical_formula_sum   'K4 Ca4 Cr4 H40 C24 O68'
_cell_volume   1711.14478050
_cell_formula_units_Z   4
loop_
 _symmetry_equiv_pos_site_id
 _symmetry_equiv_pos_as_xyz
  1  'x, y, z'
loop_
 _atom_site_type_symbol
 _atom_site_label
 _atom_site_symmetry_multiplicity
 _atom_site_fract_x
 _atom_site_fract_y
 _atom_site_fract_z
 _atom_site_occupancy
  K  K0  1  0.27981500  0.73376800  0.93085800  1
  K  K1  1  0.22018500  0.73376800  0.43085800  1
  K  K2  1  0.72018500  0.26623200  0.06914200  1
  K  K3  1  0.77981500  0.26623200  0.56914200  1
  Ca  Ca4  1  0.59412800  0.89593000  0.64824400  1
  Ca  Ca5  1  0.90587200  0.89593000  0.14824400  1
  Ca  Ca6  1  0.40587200  0.10407000  0.35175600  1
  Ca  Ca7  1  0.09412800  0.10407000  0.85175600  1
  Cr  Cr8  1  0.09285500  0.72804500  0.67700700  1
  Cr  Cr9  1  0.40714500  0.72804500  0.17700700  1
  Cr  Cr10  1  0.90714500  0.27195500  0.32299300  1
  Cr  Cr11  1  0.59285500  0.27195500  0.82299300  1
  H  H12  1  0.56912100  0.98828800  0.79791900  1
  H  H13  1  0.93087900  0.98828800  0.29791900  1
  H  H14  1  0.43087900  0.01171200  0.20208100  1
  H  H15  1  0.06912100  0.01171200  0.70208100  1
  H  H16  1  0.66919400  0.86921900  0.83772000  1
  H  H17  1  0.83080600  0.86921900  0.33772000  1
  H  H18  1  0.33080600  0.13078100  0.16228000  1
  H  H19  1  0.16919400  0.13078100  0.66228000  1
  H  H20  1  0.47253300  0.16647400  0.59942900  1
  H  H21  1  0.02746700  0.16647400  0.09942900  1
  H  H22  1  0.52746700  0.83352600  0.40057100  1
  H  H23  1  0.97253300  0.83352600  0.90057100  1
  H  H24  1  0.53534800  0.21131100  0.50244000  1
  H  H25  1  0.96465200  0.21131100  0.00244000  1
  H  H26  1  0.46465200  0.78868900  0.49756000  1
  H  H27  1  0.03534800  0.78868900  0.99756000  1
  H  H28  1  0.78509800  0.77297100  0.98258000  1
  H  H29  1  0.71490200  0.77297100  0.48258000  1
  H  H30  1  0.21490200  0.22702900  0.01742000  1
  H  H31  1  0.28509800  0.22702900  0.51742000  1
  H  H32  1  0.79365600  0.68576500  0.93161600  1
  H  H33  1  0.70634400  0.68576500  0.43161600  1
  H  H34  1  0.20634400  0.31423500  0.06838400  1
  H  H35  1  0.29365600  0.31423500  0.56838400  1
  H  H36  1  0.09591700  0.48133100  0.10455100  1
  H  H37  1  0.40408300  0.48133100  0.60455100  1
  H  H38  1  0.90408300  0.51866900  0.89544900  1
  H  H39  1  0.59591700  0.51866900  0.39544900  1
  H  H40  1  0.06095500  0.42441800  0.04139400  1
  H  H41  1  0.43904500  0.42441800  0.54139400  1
  H  H42  1  0.93904500  0.57558200  0.95860600  1
  H  H43  1  0.56095500  0.57558200  0.45860600  1
  H  H44  1  0.53407600  0.67144400  0.01998200  1
  H  H45  1  0.96592400  0.67144400  0.51998200  1
  H  H46  1  0.46592400  0.32855600  0.98001800  1
  H  H47  1  0.03407600  0.32855600  0.48001800  1
  H  H48  1  0.56197200  0.56140200  0.99154300  1
  H  H49  1  0.93802800  0.56140200  0.49154300  1
  H  H50  1  0.43802800  0.43859800  0.00845700  1
  H  H51  1  0.06197200  0.43859800  0.50845700  1
  C  C52  1  0.86198800  0.80086500  0.60630400  1
  C  C53  1  0.63801200  0.80086500  0.10630400  1
  C  C54  1  0.13801200  0.19913500  0.39369600  1
  C  C55  1  0.36198800  0.19913500  0.89369600  1
  C  C56  1  0.88729900  0.88216200  0.65716300  1
  C  C57  1  0.61270100  0.88216200  0.15716300  1
  C  C58  1  0.11270100  0.11783800  0.34283700  1
  C  C59  1  0.38729900  0.11783800  0.84283700  1
  C  C60  1  0.31478100  0.80238800  0.70898100  1
  C  C61  1  0.18521900  0.80238800  0.20898100  1
  C  C62  1  0.68521900  0.19761200  0.29101900  1
  C  C63  1  0.81478100  0.19761200  0.79101900  1
  C  C64  1  0.29861500  0.88746000  0.59548100  1
  C  C65  1  0.20138500  0.88746000  0.09548100  1
  C  C66  1  0.70138500  0.11254000  0.40451900  1
  C  C67  1  0.79861500  0.11254000  0.90451900  1
  C  C68  1  0.13296000  0.45211500  0.71987100  1
  C  C69  1  0.36704000  0.45211500  0.21987100  1
  C  C70  1  0.86704000  0.54788500  0.28012900  1
  C  C71  1  0.63296000  0.54788500  0.78012900  1
  C  C72  1  0.04789700  0.43323500  0.80170200  1
  C  C73  1  0.45210300  0.43323500  0.30170200  1
  C  C74  1  0.95210300  0.56676500  0.19829800  1
  C  C75  1  0.54789700  0.56676500  0.69829800  1
  O  O76  1  0.95466800  0.74539600  0.59289100  1
  O  O77  1  0.54533200  0.74539600  0.09289100  1
  O  O78  1  0.04533200  0.25460400  0.40710900  1
  O  O79  1  0.45466800  0.25460400  0.90710900  1
  O  O80  1  0.75995300  0.79562700  0.58060400  1
  O  O81  1  0.74004700  0.79562700  0.08060400  1
  O  O82  1  0.24004700  0.20437300  0.41939600  1
  O  O83  1  0.25995300  0.20437300  0.91939600  1
  O  O84  1  0.99430300  0.86679000  0.69061600  1
  O  O85  1  0.50569700  0.86679000  0.19061600  1
  O  O86  1  0.00569700  0.13321000  0.30938400  1
  O  O87  1  0.49430300  0.13321000  0.80938400  1
  O  O88  1  0.80896600  0.95677100  0.66050900  1
  O  O89  1  0.69103400  0.95677100  0.16050900  1
  O  O90  1  0.19103400  0.04322900  0.33949100  1
  O  O91  1  0.30896600  0.04322900  0.83949100  1
  O  O92  1  0.22408600  0.72607200  0.75959900  1
  O  O93  1  0.27591400  0.72607200  0.25959900  1
  O  O94  1  0.77591400  0.27392800  0.24040100  1
  O  O95  1  0.72408600  0.27392800  0.74040100  1
  O  O96  1  0.40813900  0.81013600  0.74569500  1
  O  O97  1  0.09186100  0.81013600  0.24569500  1
  O  O98  1  0.59186100  0.18986400  0.25430500  1
  O  O99  1  0.90813900  0.18986400  0.75430500  1
  O  O100  1  0.19502200  0.87637700  0.56685800  1
  O  O101  1  0.30497800  0.87637700  0.06685800  1
  O  O102  1  0.80497800  0.12362300  0.43314200  1
  O  O103  1  0.69502200  0.12362300  0.93314200  1
  O  O104  1  0.38312200  0.95803300  0.54072700  1
  O  O105  1  0.11687800  0.95803300  0.04072700  1
  O  O106  1  0.61687800  0.04196700  0.45927300  1
  O  O107  1  0.88312200  0.04196700  0.95927300  1
  O  O108  1  0.16804800  0.58258800  0.65827600  1
  O  O109  1  0.33195200  0.58258800  0.15827600  1
  O  O110  1  0.83195200  0.41741200  0.34172400  1
  O  O111  1  0.66804800  0.41741200  0.84172400  1
  O  O112  1  0.16142900  0.34665700  0.71794300  1
  O  O113  1  0.33857100  0.34665700  0.21794300  1
  O  O114  1  0.83857100  0.65334300  0.28205700  1
  O  O115  1  0.66142900  0.65334300  0.78205700  1
  O  O116  1  0.01675500  0.55063300  0.79364100  1
  O  O117  1  0.48324500  0.55063300  0.29364100  1
  O  O118  1  0.98324500  0.44936700  0.20635900  1
  O  O119  1  0.51675500  0.44936700  0.70635900  1
  O  O120  1  0.01511700  0.31050400  0.86819800  1
  O  O121  1  0.48488300  0.31050400  0.36819800  1
  O  O122  1  0.98488300  0.68949600  0.13180200  1
  O  O123  1  0.51511700  0.68949600  0.63180200  1
  O  O124  1  0.61544800  0.92958100  0.78193800  1
  O  O125  1  0.88455200  0.92958100  0.28193800  1
  O  O126  1  0.38455200  0.07041900  0.21806200  1
  O  O127  1  0.11544800  0.07041900  0.71806200  1
  O  O128  1  0.54994100  0.15898000  0.57433200  1
  O  O129  1  0.95005900  0.15898000  0.07433200  1
  O  O130  1  0.45005900  0.84102000  0.42566800  1
  O  O131  1  0.04994100  0.84102000  0.92566800  1
  O  O132  1  0.80586600  0.78083700  0.92032900  1
  O  O133  1  0.69413400  0.78083700  0.42032900  1
  O  O134  1  0.19413400  0.21916300  0.07967100  1
  O  O135  1  0.30586600  0.21916300  0.57967100  1
  O  O136  1  0.12190900  0.48224800  0.04610200  1
  O  O137  1  0.37809100  0.48224800  0.54610200  1
  O  O138  1  0.87809100  0.51775200  0.95389800  1
  O  O139  1  0.62190900  0.51775200  0.45389800  1
  O  O140  1  0.50893900  0.63919900  0.97703600  1
  O  O141  1  0.99106100  0.63919900  0.47703600  1
  O  O142  1  0.49106100  0.36080100  0.02296400  1
  O  O143  1  0.00893900  0.36080100  0.52296400  1
