# generated using pymatgen
data_Fe3Pb8F24
_symmetry_space_group_name_H-M   'P 1'
_cell_length_a   5.67051300
_cell_length_b   9.57956777
_cell_length_c   10.61499237
_cell_angle_alpha   104.90570314
_cell_angle_beta   104.74360508
_cell_angle_gamma   89.45161398
_symmetry_Int_Tables_number   1
_chemical_formula_structural   Fe3Pb8F24
_chemical_formula_sum   'Fe3 Pb8 F24'
_cell_volume   537.90349104
_cell_formula_units_Z   1
loop_
 _symmetry_equiv_pos_site_id
 _symmetry_equiv_pos_as_xyz
  1  'x, y, z'
loop_
 _atom_site_type_symbol
 _atom_site_label
 _atom_site_symmetry_multiplicity
 _atom_site_fract_x
 _atom_site_fract_y
 _atom_site_fract_z
 _atom_site_occupancy
  Fe  Fe0  1  0.00000000  0.00000000  0.00000000  1
  Fe  Fe1  1  0.45051900  0.24881400  0.90503200  1
  Fe  Fe2  1  0.54948100  0.75118600  0.09496800  1
  Pb  Pb3  1  0.26533000  0.35986000  0.55021700  1
  Pb  Pb4  1  0.73467000  0.64014000  0.44978300  1
  Pb  Pb5  1  0.35715500  0.82672900  0.73713900  1
  Pb  Pb6  1  0.64284500  0.17327100  0.26286100  1
  Pb  Pb7  1  0.17632700  0.89761200  0.35773600  1
  Pb  Pb8  1  0.82367300  0.10238800  0.64226400  1
  Pb  Pb9  1  0.91287100  0.56248100  0.82668700  1
  Pb  Pb10  1  0.08712900  0.43751900  0.17331300  1
  F  F11  1  0.02198600  0.87538900  0.55208500  1
  F  F12  1  0.97801400  0.12461100  0.44791500  1
  F  F13  1  0.57287200  0.60883300  0.64383700  1
  F  F14  1  0.42712800  0.39116700  0.35616300  1
  F  F15  1  0.07858400  0.61383100  0.63220200  1
  F  F16  1  0.92141600  0.38616900  0.36779800  1
  F  F17  1  0.29346700  0.13970700  0.71669300  1
  F  F18  1  0.70653300  0.86029300  0.28330700  1
  F  F19  1  0.83141700  0.63291700  0.08320700  1
  F  F20  1  0.16858300  0.36708300  0.91679300  1
  F  F21  1  0.10928900  0.64342900  0.35843200  1
  F  F22  1  0.89071100  0.35657100  0.64156800  1
  F  F23  1  0.27123700  0.87795900  0.10538500  1
  F  F24  1  0.72876300  0.12204100  0.89461500  1
  F  F25  1  0.70661000  0.89718100  0.03763300  1
  F  F26  1  0.29339000  0.10281900  0.96236700  1
  F  F27  1  0.40359200  0.62385300  0.17466600  1
  F  F28  1  0.59640800  0.37614700  0.82533400  1
  F  F29  1  0.38842000  0.66438500  0.90405000  1
  F  F30  1  0.61158000  0.33561500  0.09595000  1
  F  F31  1  0.04407800  0.14738600  0.17957900  1
  F  F32  1  0.95592200  0.85261400  0.82042100  1
  F  F33  1  0.51722400  0.86734900  0.54473500  1
  F  F34  1  0.48277600  0.13265100  0.45526500  1
