# generated using pymatgen
data_Ba3(AlSn)2
_symmetry_space_group_name_H-M   'P 1'
_cell_length_a   10.99958927
_cell_length_b   10.99958927
_cell_length_c   10.99958927
_cell_angle_alpha   155.70573223
_cell_angle_beta   152.22768577
_cell_angle_gamma   37.22645474
_symmetry_Int_Tables_number   1
_chemical_formula_structural   Ba3(AlSn)2
_chemical_formula_sum   'Ba3 Al2 Sn2'
_cell_volume   254.77116692
_cell_formula_units_Z   1
loop_
 _symmetry_equiv_pos_site_id
 _symmetry_equiv_pos_as_xyz
  1  'x, y, z'
loop_
 _atom_site_type_symbol
 _atom_site_label
 _atom_site_symmetry_multiplicity
 _atom_site_fract_x
 _atom_site_fract_y
 _atom_site_fract_z
 _atom_site_occupancy
  Ba  Ba0  1  0.00000000  0.50000000  0.50000000  1
  Ba  Ba1  1  0.81829600  0.81829600  0.00000000  1
  Ba  Ba2  1  0.18170400  0.18170400  0.00000000  1
  Al  Al3  1  0.43861500  0.93861500  0.50000000  1
  Al  Al4  1  0.56138500  0.06138500  0.50000000  1
  Sn  Sn5  1  0.36407900  0.36407900  0.00000000  1
  Sn  Sn6  1  0.63592100  0.63592100  0.00000000  1
