# generated using pymatgen
data_Sn2H10C4N2O9F2
_symmetry_space_group_name_H-M   'P 1'
_cell_length_a   9.87051400
_cell_length_b   10.22449400
_cell_length_c   12.67229498
_cell_angle_alpha   85.58602007
_cell_angle_beta   90.00000000
_cell_angle_gamma   90.00000000
_symmetry_Int_Tables_number   1
_chemical_formula_structural   Sn2H10C4N2O9F2
_chemical_formula_sum   'Sn8 H40 C16 N8 O36 F8'
_cell_volume   1275.10760812
_cell_formula_units_Z   4
loop_
 _symmetry_equiv_pos_site_id
 _symmetry_equiv_pos_as_xyz
  1  'x, y, z'
loop_
 _atom_site_type_symbol
 _atom_site_label
 _atom_site_symmetry_multiplicity
 _atom_site_fract_x
 _atom_site_fract_y
 _atom_site_fract_z
 _atom_site_occupancy
  Sn  Sn0  1  0.64484300  0.51092500  0.60967200  1
  Sn  Sn1  1  0.14484300  0.48907500  0.89032800  1
  Sn  Sn2  1  0.35515700  0.48907500  0.39032800  1
  Sn  Sn3  1  0.85515700  0.51092500  0.10967200  1
  Sn  Sn4  1  0.81491100  0.12844300  0.99438500  1
  Sn  Sn5  1  0.31491100  0.87155700  0.50561500  1
  Sn  Sn6  1  0.18508900  0.87155700  0.00561500  1
  Sn  Sn7  1  0.68508900  0.12844300  0.49438500  1
  H  H8  1  0.96071200  0.87471200  0.71395800  1
  H  H9  1  0.46071200  0.12528800  0.78604200  1
  H  H10  1  0.03928800  0.12528800  0.28604200  1
  H  H11  1  0.53928800  0.87471200  0.21395800  1
  H  H12  1  0.89744000  0.02692800  0.72809800  1
  H  H13  1  0.39744000  0.97307200  0.77190200  1
  H  H14  1  0.10256000  0.97307200  0.27190200  1
  H  H15  1  0.60256000  0.02692800  0.22809800  1
  H  H16  1  0.91315400  0.64496500  0.70516700  1
  H  H17  1  0.41315400  0.35503500  0.79483300  1
  H  H18  1  0.08684600  0.35503500  0.29483300  1
  H  H19  1  0.58684600  0.64496500  0.20516700  1
  H  H20  1  0.06633100  0.00273800  0.73607800  1
  H  H21  1  0.56633100  0.99726200  0.76392200  1
  H  H22  1  0.93366900  0.99726200  0.26392200  1
  H  H23  1  0.43366900  0.00273800  0.23607800  1
  H  H24  1  0.89018100  0.69578100  0.81927100  1
  H  H25  1  0.39018100  0.30421900  0.68072900  1
  H  H26  1  0.10981900  0.30421900  0.18072900  1
  H  H27  1  0.60981900  0.69578100  0.31927100  1
  H  H28  1  0.96453000  0.40416700  0.60774900  1
  H  H29  1  0.46453000  0.59583300  0.89225100  1
  H  H30  1  0.03547000  0.59583300  0.39225100  1
  H  H31  1  0.53547000  0.40416700  0.10774900  1
  H  H32  1  0.10125300  0.37030300  0.53536600  1
  H  H33  1  0.60125300  0.62969700  0.96463400  1
  H  H34  1  0.89874700  0.62969700  0.46463400  1
  H  H35  1  0.39874700  0.37030300  0.03536600  1
  H  H36  1  0.97666600  0.25627800  0.55707400  1
  H  H37  1  0.47666600  0.74372200  0.94292600  1
  H  H38  1  0.02333400  0.74372200  0.44292600  1
  H  H39  1  0.52333400  0.25627800  0.05707400  1
  H  H40  1  0.08163200  0.29567000  0.65725100  1
  H  H41  1  0.58163200  0.70433000  0.84274900  1
  H  H42  1  0.91836800  0.70433000  0.34274900  1
  H  H43  1  0.41836800  0.29567000  0.15725100  1
  H  H44  1  0.98323100  0.99993100  0.61779400  1
  H  H45  1  0.48323100  0.00006900  0.88220600  1
  H  H46  1  0.01676900  0.00006900  0.38220600  1
  H  H47  1  0.51676900  0.99993100  0.11779400  1
  C  C48  1  0.68245300  0.81319400  0.49612000  1
  C  C49  1  0.18245300  0.18680600  0.00388000  1
  C  C50  1  0.31754700  0.18680600  0.50388000  1
  C  C51  1  0.81754700  0.81319400  0.99612000  1
  C  C52  1  0.75439800  0.26482700  0.76506700  1
  C  C53  1  0.25439800  0.73517300  0.73493300  1
  C  C54  1  0.24560200  0.73517300  0.23493300  1
  C  C55  1  0.74560200  0.26482700  0.26506700  1
  C  C56  1  0.66039500  0.82655500  0.61720700  1
  C  C57  1  0.16039500  0.17344500  0.88279300  1
  C  C58  1  0.33960500  0.17344500  0.38279300  1
  C  C59  1  0.83960500  0.82655500  0.11720700  1
  C  C60  1  0.72380100  0.37947900  0.83538700  1
  C  C61  1  0.22380100  0.62052100  0.66461300  1
  C  C62  1  0.27619900  0.62052100  0.16461300  1
  C  C63  1  0.77619900  0.37947900  0.33538700  1
  N  N64  1  0.03128600  0.33048800  0.58956000  1
  N  N65  1  0.53128600  0.66951200  0.91044000  1
  N  N66  1  0.96871400  0.66951200  0.41044000  1
  N  N67  1  0.46871400  0.33048800  0.08956000  1
  N  N68  1  0.97775500  0.97616400  0.69843100  1
  N  N69  1  0.47775500  0.02383600  0.80156900  1
  N  N70  1  0.02224500  0.02383600  0.30156900  1
  N  N71  1  0.52224500  0.97616400  0.19843100  1
  O  O72  1  0.78084300  0.15222100  0.81150100  1
  O  O73  1  0.28084300  0.84777900  0.68849900  1
  O  O74  1  0.21915700  0.84777900  0.18849900  1
  O  O75  1  0.71915700  0.15222100  0.31150100  1
  O  O76  1  0.70727400  0.91672600  0.43727500  1
  O  O77  1  0.20727400  0.08327400  0.06272500  1
  O  O78  1  0.29272600  0.08327400  0.56272500  1
  O  O79  1  0.79272600  0.91672600  0.93727500  1
  O  O80  1  0.62654700  0.72373100  0.67497700  1
  O  O81  1  0.12654700  0.27626900  0.82502300  1
  O  O82  1  0.37345300  0.27626900  0.32502300  1
  O  O83  1  0.87345300  0.72373100  0.17497700  1
  O  O84  1  0.69102700  0.48984000  0.78856200  1
  O  O85  1  0.19102700  0.51016000  0.71143800  1
  O  O86  1  0.30897300  0.51016000  0.21143800  1
  O  O87  1  0.80897300  0.48984000  0.28856200  1
  O  O88  1  0.75393500  0.28999500  0.66600300  1
  O  O89  1  0.25393500  0.71000500  0.83399700  1
  O  O90  1  0.24606500  0.71000500  0.33399700  1
  O  O91  1  0.74606500  0.28999500  0.16600300  1
  O  O92  1  0.73522100  0.35714100  0.93439500  1
  O  O93  1  0.23522100  0.64285900  0.56560500  1
  O  O94  1  0.26477900  0.64285900  0.06560500  1
  O  O95  1  0.76477900  0.35714100  0.43439500  1
  O  O96  1  0.67306600  0.69942800  0.46312600  1
  O  O97  1  0.17306600  0.30057200  0.03687400  1
  O  O98  1  0.32693400  0.30057200  0.53687400  1
  O  O99  1  0.82693400  0.69942800  0.96312600  1
  O  O100  1  0.67469300  0.93939900  0.64975300  1
  O  O101  1  0.17469300  0.06060100  0.85024700  1
  O  O102  1  0.32530700  0.06060100  0.35024700  1
  O  O103  1  0.82530700  0.93939900  0.14975300  1
  O  O104  1  0.94752300  0.70626800  0.75524600  1
  O  O105  1  0.44752300  0.29373200  0.74475400  1
  O  O106  1  0.05247700  0.29373200  0.24475400  1
  O  O107  1  0.55247700  0.70626800  0.25524600  1
  F  F108  1  0.85735000  0.55183400  0.60236900  1
  F  F109  1  0.35735000  0.44816600  0.89763100  1
  F  F110  1  0.14265000  0.44816600  0.39763100  1
  F  F111  1  0.64265000  0.55183400  0.10236900  1
  F  F112  1  0.60440900  0.11275000  0.00945500  1
  F  F113  1  0.10440900  0.88725000  0.49054500  1
  F  F114  1  0.39559100  0.88725000  0.99054500  1
  F  F115  1  0.89559100  0.11275000  0.50945500  1
