# generated using pymatgen
data_UH16C4(NO3)4
_symmetry_space_group_name_H-M   'P 1'
_cell_length_a   14.81246100
_cell_length_b   8.00305200
_cell_length_c   12.21046418
_cell_angle_alpha   82.65792724
_cell_angle_beta   90.00000000
_cell_angle_gamma   90.00000000
_symmetry_Int_Tables_number   1
_chemical_formula_structural   UH16C4(NO3)4
_chemical_formula_sum   'U4 H64 C16 N16 O48'
_cell_volume   1435.62005826
_cell_formula_units_Z   4
loop_
 _symmetry_equiv_pos_site_id
 _symmetry_equiv_pos_as_xyz
  1  'x, y, z'
loop_
 _atom_site_type_symbol
 _atom_site_label
 _atom_site_symmetry_multiplicity
 _atom_site_fract_x
 _atom_site_fract_y
 _atom_site_fract_z
 _atom_site_occupancy
  U  U0  1  0.52788600  0.83491600  0.72323600  1
  U  U1  1  0.02788600  0.16508400  0.77676400  1
  U  U2  1  0.47211400  0.16508400  0.27676400  1
  U  U3  1  0.97211400  0.83491600  0.22323600  1
  H  H4  1  0.40421800  0.84471800  0.51256900  1
  H  H5  1  0.90421800  0.15528200  0.98743100  1
  H  H6  1  0.59578200  0.15528200  0.48743100  1
  H  H7  1  0.09578200  0.84471800  0.01256900  1
  H  H8  1  0.34590700  0.73112600  0.61547000  1
  H  H9  1  0.84590700  0.26887400  0.88453000  1
  H  H10  1  0.65409300  0.26887400  0.38453000  1
  H  H11  1  0.15409300  0.73112600  0.11547000  1
  H  H12  1  0.69231300  0.87073000  0.53013600  1
  H  H13  1  0.19231300  0.12927000  0.96986400  1
  H  H14  1  0.30768700  0.12927000  0.46986400  1
  H  H15  1  0.80768700  0.87073000  0.03013600  1
  H  H16  1  0.76704400  0.84529400  0.44394700  1
  H  H17  1  0.26704400  0.15470600  0.05605300  1
  H  H18  1  0.23295600  0.15470600  0.55605300  1
  H  H19  1  0.73295600  0.84529400  0.94394700  1
  H  H20  1  0.81641200  0.06214100  0.73781600  1
  H  H21  1  0.31641200  0.93785900  0.76218400  1
  H  H22  1  0.18358800  0.93785900  0.26218400  1
  H  H23  1  0.68358800  0.06214100  0.23781600  1
  H  H24  1  0.79743400  0.11466800  0.59830900  1
  H  H25  1  0.29743400  0.88533200  0.90169100  1
  H  H26  1  0.20256600  0.88533200  0.40169100  1
  H  H27  1  0.70256600  0.11466800  0.09830900  1
  H  H28  1  0.84196300  0.58849700  0.44358900  1
  H  H29  1  0.34196300  0.41150300  0.05641100  1
  H  H30  1  0.15803700  0.41150300  0.55641100  1
  H  H31  1  0.65803700  0.58849700  0.94358900  1
  H  H32  1  0.91457500  0.75345900  0.81906900  1
  H  H33  1  0.41457500  0.24654100  0.68093100  1
  H  H34  1  0.08542500  0.24654100  0.18093100  1
  H  H35  1  0.58542500  0.75345900  0.31906900  1
  H  H36  1  0.95859900  0.56937800  0.88138300  1
  H  H37  1  0.45859900  0.43062200  0.61861700  1
  H  H38  1  0.04140100  0.43062200  0.11861700  1
  H  H39  1  0.54140100  0.56937800  0.38138300  1
  H  H40  1  0.85746100  0.57047300  0.81541600  1
  H  H41  1  0.35746100  0.42952700  0.68458400  1
  H  H42  1  0.14253900  0.42952700  0.18458400  1
  H  H43  1  0.64253900  0.57047300  0.31541600  1
  H  H44  1  0.74660100  0.22248900  0.68890600  1
  H  H45  1  0.24660100  0.77751100  0.81109400  1
  H  H46  1  0.25339900  0.77751100  0.31109400  1
  H  H47  1  0.75339900  0.22248900  0.18890600  1
  H  H48  1  0.71359900  0.02495600  0.67818800  1
  H  H49  1  0.21359900  0.97504400  0.82181200  1
  H  H50  1  0.28640100  0.97504400  0.32181200  1
  H  H51  1  0.78640100  0.02495600  0.17818800  1
  H  H52  1  0.91331100  0.55910400  0.55270700  1
  H  H53  1  0.41331100  0.44089600  0.94729300  1
  H  H54  1  0.08668900  0.44089600  0.44729300  1
  H  H55  1  0.58668900  0.55910400  0.05270700  1
  H  H56  1  0.88809300  0.39648600  0.48001300  1
  H  H57  1  0.38809300  0.60351400  0.01998700  1
  H  H58  1  0.11190700  0.60351400  0.51998700  1
  H  H59  1  0.61190700  0.39648600  0.98001300  1
  H  H60  1  0.80967100  0.47243300  0.56200800  1
  H  H61  1  0.30967100  0.52756700  0.93799200  1
  H  H62  1  0.19032900  0.52756700  0.43799200  1
  H  H63  1  0.69032900  0.47243300  0.06200800  1
  H  H64  1  0.86438300  0.65754700  0.93343800  1
  H  H65  1  0.36438300  0.34245300  0.56656200  1
  H  H66  1  0.13561700  0.34245300  0.06656200  1
  H  H67  1  0.63561700  0.65754700  0.43343800  1
  C  C68  1  0.69470600  0.54710400  0.72804800  1
  C  C69  1  0.19470600  0.45289600  0.77195200  1
  C  C70  1  0.30529400  0.45289600  0.27195200  1
  C  C71  1  0.80529400  0.54710400  0.22804800  1
  C  C72  1  0.61355200  0.09142200  0.89706800  1
  C  C73  1  0.11355200  0.90857800  0.60293200  1
  C  C74  1  0.38644800  0.90857800  0.10293200  1
  C  C75  1  0.88644800  0.09142200  0.39706800  1
  C  C76  1  0.52270900  0.17734100  0.85917700  1
  C  C77  1  0.02270900  0.82265900  0.64082300  1
  C  C78  1  0.47729100  0.82265900  0.14082300  1
  C  C79  1  0.97729100  0.17734100  0.35917700  1
  C  C80  1  0.62992700  0.49874000  0.63754300  1
  C  C81  1  0.12992700  0.50126000  0.86245700  1
  C  C82  1  0.37007300  0.50126000  0.36245700  1
  C  C83  1  0.87007300  0.49874000  0.13754300  1
  N  N84  1  0.40073300  0.80811400  0.59682000  1
  N  N85  1  0.90073300  0.19188600  0.90318000  1
  N  N86  1  0.59926700  0.19188600  0.40318000  1
  N  N87  1  0.09926700  0.80811400  0.09682000  1
  N  N88  1  0.76890000  0.10367300  0.67667900  1
  N  N89  1  0.26890000  0.89632700  0.82332100  1
  N  N90  1  0.23110000  0.89632700  0.32332100  1
  N  N91  1  0.73110000  0.10367300  0.17667900  1
  N  N92  1  0.86315100  0.50419900  0.50960500  1
  N  N93  1  0.36315100  0.49580100  0.99039500  1
  N  N94  1  0.13684900  0.49580100  0.49039500  1
  N  N95  1  0.63684900  0.50419900  0.00960500  1
  N  N96  1  0.89939600  0.63734000  0.86306100  1
  N  N97  1  0.39939600  0.36266000  0.63693900  1
  N  N98  1  0.10060400  0.36266000  0.13693900  1
  N  N99  1  0.60060400  0.63734000  0.36306100  1
  O  O100  1  0.66848900  0.66867000  0.77871200  1
  O  O101  1  0.16848900  0.33133000  0.72128800  1
  O  O102  1  0.33151100  0.33133000  0.22128800  1
  O  O103  1  0.83151100  0.66867000  0.27871200  1
  O  O104  1  0.62939800  0.95137000  0.85953500  1
  O  O105  1  0.12939800  0.04863000  0.64046500  1
  O  O106  1  0.37060200  0.04863000  0.14046500  1
  O  O107  1  0.87060200  0.95137000  0.35953500  1
  O  O108  1  0.55645400  0.58539100  0.62580700  1
  O  O109  1  0.05645400  0.41460900  0.87419300  1
  O  O110  1  0.44354600  0.41460900  0.37419300  1
  O  O111  1  0.94354600  0.58539100  0.12580700  1
  O  O112  1  0.39573400  0.95032700  0.65260400  1
  O  O113  1  0.89573400  0.04967300  0.84739600  1
  O  O114  1  0.60426600  0.04967300  0.34739600  1
  O  O115  1  0.10426600  0.95032700  0.15260400  1
  O  O116  1  0.47452200  0.09489600  0.79652400  1
  O  O117  1  0.97452200  0.90510400  0.70347600  1
  O  O118  1  0.52547800  0.90510400  0.20347600  1
  O  O119  1  0.02547800  0.09489600  0.29652400  1
  O  O120  1  0.46542800  0.70608000  0.83154400  1
  O  O121  1  0.96542800  0.29392000  0.66845600  1
  O  O122  1  0.53457200  0.29392000  0.16845600  1
  O  O123  1  0.03457200  0.70608000  0.33154400  1
  O  O124  1  0.59596800  0.96352900  0.61581800  1
  O  O125  1  0.09596800  0.03647100  0.88418200  1
  O  O126  1  0.40403200  0.03647100  0.38418200  1
  O  O127  1  0.90403200  0.96352900  0.11581800  1
  O  O128  1  0.76689800  0.46390600  0.74589400  1
  O  O129  1  0.26689800  0.53609400  0.75410600  1
  O  O130  1  0.23310200  0.53609400  0.25410600  1
  O  O131  1  0.73310200  0.46390600  0.24589400  1
  O  O132  1  0.66471800  0.16259700  0.95865800  1
  O  O133  1  0.16471800  0.83740300  0.54134200  1
  O  O134  1  0.33528200  0.83740300  0.04134200  1
  O  O135  1  0.83528200  0.16259700  0.45865800  1
  O  O136  1  0.50385000  0.31645300  0.88934800  1
  O  O137  1  0.00385000  0.68354700  0.61065200  1
  O  O138  1  0.49615000  0.68354700  0.11065200  1
  O  O139  1  0.99615000  0.31645300  0.38934800  1
  O  O140  1  0.65202800  0.38217300  0.58379900  1
  O  O141  1  0.15202800  0.61782700  0.91620100  1
  O  O142  1  0.34797200  0.61782700  0.41620100  1
  O  O143  1  0.84797200  0.38217300  0.08379900  1
  O  O144  1  0.72834300  0.78340900  0.50130400  1
  O  O145  1  0.22834300  0.21659100  0.99869600  1
  O  O146  1  0.27165700  0.21659100  0.49869600  1
  O  O147  1  0.77165700  0.78340900  0.00130400  1
