# generated using pymatgen
data_W2C
_symmetry_space_group_name_H-M   'P 1'
_cell_length_a   3.07004528
_cell_length_b   3.07004528
_cell_length_c   4.67842800
_cell_angle_alpha   90.00000000
_cell_angle_beta   90.00000000
_cell_angle_gamma   119.99998457
_symmetry_Int_Tables_number   1
_chemical_formula_structural   W2C
_chemical_formula_sum   'W2 C1'
_cell_volume   38.18741073
_cell_formula_units_Z   1
loop_
 _symmetry_equiv_pos_site_id
 _symmetry_equiv_pos_as_xyz
  1  'x, y, z'
loop_
 _atom_site_type_symbol
 _atom_site_label
 _atom_site_symmetry_multiplicity
 _atom_site_fract_x
 _atom_site_fract_y
 _atom_site_fract_z
 _atom_site_occupancy
  W  W0  1  0.66666700  0.33333300  0.74633100  1
  W  W1  1  0.33333300  0.66666700  0.25366900  1
  C  C2  1  0.00000000  0.00000000  0.00000000  1
