# generated using pymatgen
data_Na3GeH11O9
_symmetry_space_group_name_H-M   'P 1'
_cell_length_a   11.16919200
_cell_length_b   11.99340800
_cell_length_c   13.20229900
_cell_angle_alpha   90.00000000
_cell_angle_beta   90.00000000
_cell_angle_gamma   90.00000000
_symmetry_Int_Tables_number   1
_chemical_formula_structural   Na3GeH11O9
_chemical_formula_sum   'Na24 Ge8 H88 O72'
_cell_volume   1768.53609866
_cell_formula_units_Z   8
loop_
 _symmetry_equiv_pos_site_id
 _symmetry_equiv_pos_as_xyz
  1  'x, y, z'
loop_
 _atom_site_type_symbol
 _atom_site_label
 _atom_site_symmetry_multiplicity
 _atom_site_fract_x
 _atom_site_fract_y
 _atom_site_fract_z
 _atom_site_occupancy
  Na  Na0  1  0.63327400  0.82636300  0.12856800  1
  Na  Na1  1  0.86672600  0.32636300  0.87143200  1
  Na  Na2  1  0.13327400  0.17363700  0.37143200  1
  Na  Na3  1  0.36672600  0.67363700  0.62856800  1
  Na  Na4  1  0.36672600  0.17363700  0.87143200  1
  Na  Na5  1  0.13327400  0.67363700  0.12856800  1
  Na  Na6  1  0.86672600  0.82636300  0.62856800  1
  Na  Na7  1  0.63327400  0.32636300  0.37143200  1
  Na  Na8  1  0.60714900  0.68218900  0.91691900  1
  Na  Na9  1  0.89285100  0.18218900  0.08308100  1
  Na  Na10  1  0.10714900  0.31781100  0.58308100  1
  Na  Na11  1  0.39285100  0.81781100  0.41691900  1
  Na  Na12  1  0.39285100  0.31781100  0.08308100  1
  Na  Na13  1  0.10714900  0.81781100  0.91691900  1
  Na  Na14  1  0.89285100  0.68218900  0.41691900  1
  Na  Na15  1  0.60714900  0.18218900  0.58308100  1
  Na  Na16  1  0.37550600  0.83648300  0.82177700  1
  Na  Na17  1  0.12449400  0.33648300  0.17822300  1
  Na  Na18  1  0.87550600  0.16351700  0.67822300  1
  Na  Na19  1  0.62449400  0.66351700  0.32177700  1
  Na  Na20  1  0.62449400  0.16351700  0.17822300  1
  Na  Na21  1  0.87550600  0.66351700  0.82177700  1
  Na  Na22  1  0.12449400  0.83648300  0.32177700  1
  Na  Na23  1  0.37550600  0.33648300  0.67822300  1
  Ge  Ge24  1  0.62867900  0.97878000  0.86917900  1
  Ge  Ge25  1  0.87132100  0.47878000  0.13082100  1
  Ge  Ge26  1  0.12867900  0.02122000  0.63082100  1
  Ge  Ge27  1  0.37132100  0.52122000  0.36917900  1
  Ge  Ge28  1  0.37132100  0.02122000  0.13082100  1
  Ge  Ge29  1  0.12867900  0.52122000  0.86917900  1
  Ge  Ge30  1  0.87132100  0.97878000  0.36917900  1
  Ge  Ge31  1  0.62867900  0.47878000  0.63082100  1
  H  H32  1  0.49668000  0.88764200  0.99518500  1
  H  H33  1  0.00332000  0.38764200  0.00481500  1
  H  H34  1  0.99668000  0.11235800  0.50481500  1
  H  H35  1  0.50332000  0.61235800  0.49518500  1
  H  H36  1  0.50332000  0.11235800  0.00481500  1
  H  H37  1  0.99668000  0.61235800  0.99518500  1
  H  H38  1  0.00332000  0.88764200  0.49518500  1
  H  H39  1  0.49668000  0.38764200  0.50481500  1
  H  H40  1  0.50699100  0.91985500  0.27629100  1
  H  H41  1  0.99300900  0.41985500  0.72370900  1
  H  H42  1  0.00699100  0.08014500  0.22370900  1
  H  H43  1  0.49300900  0.58014500  0.77629100  1
  H  H44  1  0.49300900  0.08014500  0.72370900  1
  H  H45  1  0.00699100  0.58014500  0.27629100  1
  H  H46  1  0.99300900  0.91985500  0.77629100  1
  H  H47  1  0.50699100  0.41985500  0.22370900  1
  H  H48  1  0.62639000  0.90319100  0.34325300  1
  H  H49  1  0.87361000  0.40319100  0.65674700  1
  H  H50  1  0.12639000  0.09680900  0.15674700  1
  H  H51  1  0.37361000  0.59680900  0.84325300  1
  H  H52  1  0.37361000  0.09680900  0.65674700  1
  H  H53  1  0.12639000  0.59680900  0.34325300  1
  H  H54  1  0.87361000  0.90319100  0.84325300  1
  H  H55  1  0.62639000  0.40319100  0.15674700  1
  H  H56  1  0.64933800  0.69135800  0.69210600  1
  H  H57  1  0.85066200  0.19135800  0.30789400  1
  H  H58  1  0.14933800  0.30864200  0.80789400  1
  H  H59  1  0.35066200  0.80864200  0.19210600  1
  H  H60  1  0.35066200  0.30864200  0.30789400  1
  H  H61  1  0.14933800  0.80864200  0.69210600  1
  H  H62  1  0.85066200  0.69135800  0.19210600  1
  H  H63  1  0.64933800  0.19135800  0.80789400  1
  H  H64  1  0.66352600  0.81321400  0.74109300  1
  H  H65  1  0.83647400  0.31321400  0.25890700  1
  H  H66  1  0.16352600  0.18678600  0.75890700  1
  H  H67  1  0.33647400  0.68678600  0.24109300  1
  H  H68  1  0.33647400  0.18678600  0.25890700  1
  H  H69  1  0.16352600  0.68678600  0.74109300  1
  H  H70  1  0.83647400  0.81321400  0.24109300  1
  H  H71  1  0.66352600  0.31321400  0.75890700  1
  H  H72  1  0.69870500  0.82743800  0.47179500  1
  H  H73  1  0.80129500  0.32743800  0.52820500  1
  H  H74  1  0.19870500  0.17256200  0.02820500  1
  H  H75  1  0.30129500  0.67256200  0.97179500  1
  H  H76  1  0.30129500  0.17256200  0.52820500  1
  H  H77  1  0.19870500  0.67256200  0.47179500  1
  H  H78  1  0.80129500  0.82743800  0.97179500  1
  H  H79  1  0.69870500  0.32743800  0.02820500  1
  H  H80  1  0.65971800  0.71089900  0.53297800  1
  H  H81  1  0.84028200  0.21089900  0.46702200  1
  H  H82  1  0.15971800  0.28910100  0.96702200  1
  H  H83  1  0.34028200  0.78910100  0.03297800  1
  H  H84  1  0.34028200  0.28910100  0.46702200  1
  H  H85  1  0.15971800  0.78910100  0.53297800  1
  H  H86  1  0.84028200  0.71089900  0.03297800  1
  H  H87  1  0.65971800  0.21089900  0.96702200  1
  H  H88  1  0.76257900  0.99765400  0.03944400  1
  H  H89  1  0.73742100  0.49765400  0.96055600  1
  H  H90  1  0.26257900  0.00234600  0.46055600  1
  H  H91  1  0.23742100  0.50234600  0.53944400  1
  H  H92  1  0.23742100  0.00234600  0.96055600  1
  H  H93  1  0.26257900  0.50234600  0.03944400  1
  H  H94  1  0.73742100  0.99765400  0.53944400  1
  H  H95  1  0.76257900  0.49765400  0.46055600  1
  H  H96  1  0.80513300  0.98423200  0.16034200  1
  H  H97  1  0.69486700  0.48423200  0.83965800  1
  H  H98  1  0.30513300  0.01576800  0.33965800  1
  H  H99  1  0.19486700  0.51576800  0.66034200  1
  H  H100  1  0.19486700  0.01576800  0.83965800  1
  H  H101  1  0.30513300  0.51576800  0.16034200  1
  H  H102  1  0.69486700  0.98423200  0.66034200  1
  H  H103  1  0.80513300  0.48423200  0.33965800  1
  H  H104  1  0.37523600  0.92326900  0.60052800  1
  H  H105  1  0.12476400  0.42326900  0.39947200  1
  H  H106  1  0.87523600  0.07673100  0.89947200  1
  H  H107  1  0.62476400  0.57673100  0.10052800  1
  H  H108  1  0.62476400  0.07673100  0.39947200  1
  H  H109  1  0.87523600  0.57673100  0.60052800  1
  H  H110  1  0.12476400  0.92326900  0.10052800  1
  H  H111  1  0.37523600  0.42326900  0.89947200  1
  H  H112  1  0.50178900  0.88708900  0.64572800  1
  H  H113  1  0.99821100  0.38708900  0.35427200  1
  H  H114  1  0.00178900  0.11291100  0.85427200  1
  H  H115  1  0.49821100  0.61291100  0.14572800  1
  H  H116  1  0.49821100  0.11291100  0.35427200  1
  H  H117  1  0.00178900  0.61291100  0.64572800  1
  H  H118  1  0.99821100  0.88708900  0.14572800  1
  H  H119  1  0.50178900  0.38708900  0.85427200  1
  O  O120  1  0.54160800  0.86847900  0.93021100  1
  O  O121  1  0.95839200  0.36847900  0.06978900  1
  O  O122  1  0.04160800  0.13152100  0.56978900  1
  O  O123  1  0.45839200  0.63152100  0.43021100  1
  O  O124  1  0.45839200  0.13152100  0.06978900  1
  O  O125  1  0.04160800  0.63152100  0.93021100  1
  O  O126  1  0.95839200  0.86847900  0.43021100  1
  O  O127  1  0.54160800  0.36847900  0.56978900  1
  O  O128  1  0.77932900  0.96582500  0.91102500  1
  O  O129  1  0.72067100  0.46582500  0.08897500  1
  O  O130  1  0.27932900  0.03417500  0.58897500  1
  O  O131  1  0.22067100  0.53417500  0.41102500  1
  O  O132  1  0.22067100  0.03417500  0.08897500  1
  O  O133  1  0.27932900  0.53417500  0.91102500  1
  O  O134  1  0.72067100  0.96582500  0.41102500  1
  O  O135  1  0.77932900  0.46582500  0.58897500  1
  O  O136  1  0.57103900  0.11183400  0.89747900  1
  O  O137  1  0.92896100  0.61183400  0.10252100  1
  O  O138  1  0.07103900  0.88816600  0.60252100  1
  O  O139  1  0.42896100  0.38816600  0.39747900  1
  O  O140  1  0.42896100  0.88816600  0.10252100  1
  O  O141  1  0.07103900  0.38816600  0.89747900  1
  O  O142  1  0.92896100  0.11183400  0.39747900  1
  O  O143  1  0.57103900  0.61183400  0.60252100  1
  O  O144  1  0.60321100  0.94345800  0.74034700  1
  O  O145  1  0.89678900  0.44345800  0.25965300  1
  O  O146  1  0.10321100  0.05654200  0.75965300  1
  O  O147  1  0.39678900  0.55654200  0.24034700  1
  O  O148  1  0.39678900  0.05654200  0.25965300  1
  O  O149  1  0.10321100  0.55654200  0.74034700  1
  O  O150  1  0.89678900  0.94345800  0.24034700  1
  O  O151  1  0.60321100  0.44345800  0.75965300  1
  O  O152  1  0.55892400  0.86168000  0.30592600  1
  O  O153  1  0.94107600  0.36168000  0.69407400  1
  O  O154  1  0.05892400  0.13832000  0.19407400  1
  O  O155  1  0.44107600  0.63832000  0.80592600  1
  O  O156  1  0.44107600  0.13832000  0.69407400  1
  O  O157  1  0.05892400  0.63832000  0.30592600  1
  O  O158  1  0.94107600  0.86168000  0.80592600  1
  O  O159  1  0.55892400  0.36168000  0.19407400  1
  O  O160  1  0.69946300  0.73591000  0.74096200  1
  O  O161  1  0.80053700  0.23591000  0.25903800  1
  O  O162  1  0.19946300  0.26409000  0.75903800  1
  O  O163  1  0.30053700  0.76409000  0.24096200  1
  O  O164  1  0.30053700  0.26409000  0.25903800  1
  O  O165  1  0.19946300  0.76409000  0.74096200  1
  O  O166  1  0.80053700  0.73591000  0.24096200  1
  O  O167  1  0.69946300  0.23591000  0.75903800  1
  O  O168  1  0.72153700  0.75055000  0.49185100  1
  O  O169  1  0.77846300  0.25055000  0.50814900  1
  O  O170  1  0.22153700  0.24945000  0.00814900  1
  O  O171  1  0.27846300  0.74945000  0.99185100  1
  O  O172  1  0.27846300  0.24945000  0.50814900  1
  O  O173  1  0.22153700  0.74945000  0.49185100  1
  O  O174  1  0.77846300  0.75055000  0.99185100  1
  O  O175  1  0.72153700  0.25055000  0.00814900  1
  O  O176  1  0.74041400  0.01381100  0.11162900  1
  O  O177  1  0.75958600  0.51381100  0.88837100  1
  O  O178  1  0.24041400  0.98618900  0.38837100  1
  O  O179  1  0.25958600  0.48618900  0.61162900  1
  O  O180  1  0.25958600  0.98618900  0.88837100  1
  O  O181  1  0.24041400  0.48618900  0.11162900  1
  O  O182  1  0.75958600  0.01381100  0.61162900  1
  O  O183  1  0.74041400  0.51381100  0.38837100  1
  O  O184  1  0.43343900  0.85927600  0.60407600  1
  O  O185  1  0.06656100  0.35927600  0.39592400  1
  O  O186  1  0.93343900  0.14072400  0.89592400  1
  O  O187  1  0.56656100  0.64072400  0.10407600  1
  O  O188  1  0.56656100  0.14072400  0.39592400  1
  O  O189  1  0.93343900  0.64072400  0.60407600  1
  O  O190  1  0.06656100  0.85927600  0.10407600  1
  O  O191  1  0.43343900  0.35927600  0.89592400  1
