# generated using pymatgen
data_CrH14N4Cl3O
_symmetry_space_group_name_H-M   'P 1'
_cell_length_a   6.83799700
_cell_length_b   10.69717500
_cell_length_c   13.38870000
_cell_angle_alpha   90.00000000
_cell_angle_beta   90.00000000
_cell_angle_gamma   90.00000000
_symmetry_Int_Tables_number   1
_chemical_formula_structural   CrH14N4Cl3O
_chemical_formula_sum   'Cr4 H56 N16 Cl12 O4'
_cell_volume   979.34659355
_cell_formula_units_Z   4
loop_
 _symmetry_equiv_pos_site_id
 _symmetry_equiv_pos_as_xyz
  1  'x, y, z'
loop_
 _atom_site_type_symbol
 _atom_site_label
 _atom_site_symmetry_multiplicity
 _atom_site_fract_x
 _atom_site_fract_y
 _atom_site_fract_z
 _atom_site_occupancy
  Cr  Cr0  1  0.82780900  0.75000000  0.59659200  1
  Cr  Cr1  1  0.67219100  0.75000000  0.09659200  1
  Cr  Cr2  1  0.17219100  0.25000000  0.40340800  1
  Cr  Cr3  1  0.32780900  0.25000000  0.90340800  1
  H  H4  1  0.14683400  0.82469900  0.68539200  1
  H  H5  1  0.35316600  0.67530100  0.18539200  1
  H  H6  1  0.85316600  0.32469900  0.31460800  1
  H  H7  1  0.64683400  0.17530100  0.81460800  1
  H  H8  1  0.85316600  0.17530100  0.31460800  1
  H  H9  1  0.64683400  0.32469900  0.81460800  1
  H  H10  1  0.14683400  0.67530100  0.68539200  1
  H  H11  1  0.35316600  0.82469900  0.18539200  1
  H  H12  1  0.70421700  0.75000000  0.78595100  1
  H  H13  1  0.79578300  0.75000000  0.28595100  1
  H  H14  1  0.29578300  0.25000000  0.21404900  1
  H  H15  1  0.20421700  0.25000000  0.71404900  1
  H  H16  1  0.54583300  0.67265000  0.71596600  1
  H  H17  1  0.95416700  0.82735000  0.21596600  1
  H  H18  1  0.45416700  0.17265000  0.28403400  1
  H  H19  1  0.04583300  0.32735000  0.78403400  1
  H  H20  1  0.45416700  0.32735000  0.28403400  1
  H  H21  1  0.04583300  0.17265000  0.78403400  1
  H  H22  1  0.54583300  0.82735000  0.71596600  1
  H  H23  1  0.95416700  0.67265000  0.21596600  1
  H  H24  1  0.45315200  0.75000000  0.53851500  1
  H  H25  1  0.04684800  0.75000000  0.03851500  1
  H  H26  1  0.54684800  0.25000000  0.46148500  1
  H  H27  1  0.95315200  0.25000000  0.96148500  1
  H  H28  1  0.58680700  0.67253900  0.45630800  1
  H  H29  1  0.91319300  0.82746100  0.95630800  1
  H  H30  1  0.41319300  0.17253900  0.54369200  1
  H  H31  1  0.08680700  0.32746100  0.04369200  1
  H  H32  1  0.41319300  0.32746100  0.54369200  1
  H  H33  1  0.08680700  0.17253900  0.04369200  1
  H  H34  1  0.58680700  0.82746100  0.45630800  1
  H  H35  1  0.91319300  0.67253900  0.95630800  1
  H  H36  1  0.79313700  0.98271600  0.52888700  1
  H  H37  1  0.70686300  0.51728400  0.02888700  1
  H  H38  1  0.20686300  0.48271600  0.47111300  1
  H  H39  1  0.29313700  0.01728400  0.97111300  1
  H  H40  1  0.20686300  0.01728400  0.47111300  1
  H  H41  1  0.29313700  0.48271600  0.97111300  1
  H  H42  1  0.79313700  0.51728400  0.52888700  1
  H  H43  1  0.70686300  0.98271600  0.02888700  1
  H  H44  1  0.95414000  0.98215200  0.62090600  1
  H  H45  1  0.54586000  0.51784800  0.12090600  1
  H  H46  1  0.04586000  0.48215200  0.37909400  1
  H  H47  1  0.45414000  0.01784800  0.87909400  1
  H  H48  1  0.04586000  0.01784800  0.37909400  1
  H  H49  1  0.45414000  0.48215200  0.87909400  1
  H  H50  1  0.95414000  0.51784800  0.62090600  1
  H  H51  1  0.54586000  0.98215200  0.12090600  1
  H  H52  1  0.71779800  0.98100500  0.64593800  1
  H  H53  1  0.78220200  0.51899500  0.14593800  1
  H  H54  1  0.28220200  0.48100500  0.35406200  1
  H  H55  1  0.21779800  0.01899500  0.85406200  1
  H  H56  1  0.28220200  0.01899500  0.35406200  1
  H  H57  1  0.21779800  0.48100500  0.85406200  1
  H  H58  1  0.71779800  0.51899500  0.64593800  1
  H  H59  1  0.78220200  0.98100500  0.14593800  1
  N  N60  1  0.82186700  0.94655900  0.59838300  1
  N  N61  1  0.67813300  0.55344100  0.09838300  1
  N  N62  1  0.17813300  0.44655900  0.40161700  1
  N  N63  1  0.32186700  0.05344100  0.90161700  1
  N  N64  1  0.17813300  0.05344100  0.40161700  1
  N  N65  1  0.32186700  0.44655900  0.90161700  1
  N  N66  1  0.82186700  0.55344100  0.59838300  1
  N  N67  1  0.67813300  0.94655900  0.09838300  1
  N  N68  1  0.63574500  0.75000000  0.71839300  1
  N  N69  1  0.86425500  0.75000000  0.21839300  1
  N  N70  1  0.36425500  0.25000000  0.28160700  1
  N  N71  1  0.13574500  0.25000000  0.78160700  1
  N  N72  1  0.58403100  0.75000000  0.50158400  1
  N  N73  1  0.91596900  0.75000000  0.00158400  1
  N  N74  1  0.41596900  0.25000000  0.49841600  1
  N  N75  1  0.08403100  0.25000000  0.99841600  1
  Cl  Cl76  1  0.03972100  0.75000000  0.45867300  1
  Cl  Cl77  1  0.46027900  0.75000000  0.95867300  1
  Cl  Cl78  1  0.96027900  0.25000000  0.54132700  1
  Cl  Cl79  1  0.53972100  0.25000000  0.04132700  1
  Cl  Cl80  1  0.82239500  0.02034500  0.85110600  1
  Cl  Cl81  1  0.67760500  0.47965500  0.35110600  1
  Cl  Cl82  1  0.17760500  0.52034500  0.14889400  1
  Cl  Cl83  1  0.32239500  0.97965500  0.64889400  1
  Cl  Cl84  1  0.17760500  0.97965500  0.14889400  1
  Cl  Cl85  1  0.32239500  0.52034500  0.64889400  1
  Cl  Cl86  1  0.82239500  0.47965500  0.85110600  1
  Cl  Cl87  1  0.67760500  0.02034500  0.35110600  1
  O  O88  1  0.06037800  0.75000000  0.69626500  1
  O  O89  1  0.43962200  0.75000000  0.19626500  1
  O  O90  1  0.93962200  0.25000000  0.30373500  1
  O  O91  1  0.56037800  0.25000000  0.80373500  1
