# generated using pymatgen
data_CaV2P2(H4O7)2
_symmetry_space_group_name_H-M   'P 1'
_cell_length_a   6.39674500
_cell_length_b   6.42925296
_cell_length_c   6.66791174
_cell_angle_alpha   104.48703048
_cell_angle_beta   93.60593522
_cell_angle_gamma   89.77188579
_symmetry_Int_Tables_number   1
_chemical_formula_structural   CaV2P2(H4O7)2
_chemical_formula_sum   'Ca1 V2 P2 H8 O14'
_cell_volume   264.96201277
_cell_formula_units_Z   1
loop_
 _symmetry_equiv_pos_site_id
 _symmetry_equiv_pos_as_xyz
  1  'x, y, z'
loop_
 _atom_site_type_symbol
 _atom_site_label
 _atom_site_symmetry_multiplicity
 _atom_site_fract_x
 _atom_site_fract_y
 _atom_site_fract_z
 _atom_site_occupancy
  Ca  Ca0  1  0.52471300  0.46588900  0.15607300  1
  V  V1  1  0.82871500  0.49487800  0.69433000  1
  V  V2  1  0.32091100  0.94051500  0.52556000  1
  P  P3  1  0.33003600  0.46405200  0.61996400  1
  P  P4  1  0.83262700  0.96413600  0.60219200  1
  H  H5  1  0.97141900  0.47729000  0.09564500  1
  H  H6  1  0.89927200  0.71645800  0.17661900  1
  H  H7  1  0.41877000  0.88487700  0.05695600  1
  H  H8  1  0.22247500  0.73264700  0.01396500  1
  H  H9  1  0.18687200  0.24627100  0.23652100  1
  H  H10  1  0.16435600  0.17920200  0.98479500  1
  H  H11  1  0.66008100  0.06612600  0.27000200  1
  H  H12  1  0.78710100  0.08579500  0.07829700  1
  O  O13  1  0.78360300  0.44774900  0.44194100  1
  O  O14  1  0.32245600  0.00878100  0.77754000  1
  O  O15  1  0.35098900  0.61567300  0.47320800  1
  O  O16  1  0.14039300  0.52270500  0.75300300  1
  O  O17  1  0.30780100  0.23632700  0.46843300  1
  O  O18  1  0.52386700  0.48068900  0.77549000  1
  O  O19  1  0.85607200  0.19605000  0.73788100  1
  O  O20  1  0.01013900  0.90671900  0.44669100  1
  O  O21  1  0.82840700  0.81704100  0.75171700  1
  O  O22  1  0.62713700  0.93616400  0.45613300  1
  O  O23  1  0.86106000  0.58196800  0.07091900  1
  O  O24  1  0.33107400  0.79685500  0.12307000  1
  O  O25  1  0.16509400  0.30098600  0.10942500  1
  O  O26  1  0.64895900  0.10595500  0.13393200  1
