# generated using pymatgen
data_MnH6(OF)3
_symmetry_space_group_name_H-M   'P 1'
_cell_length_a   9.73974900
_cell_length_b   6.43283000
_cell_length_c   8.47736566
_cell_angle_alpha   81.80170456
_cell_angle_beta   90.00000000
_cell_angle_gamma   90.00000000
_symmetry_Int_Tables_number   1
_chemical_formula_structural   MnH6(OF)3
_chemical_formula_sum   'Mn4 H24 O12 F12'
_cell_volume   525.71411499
_cell_formula_units_Z   4
loop_
 _symmetry_equiv_pos_site_id
 _symmetry_equiv_pos_as_xyz
  1  'x, y, z'
loop_
 _atom_site_type_symbol
 _atom_site_label
 _atom_site_symmetry_multiplicity
 _atom_site_fract_x
 _atom_site_fract_y
 _atom_site_fract_z
 _atom_site_occupancy
  Mn  Mn0  1  0.50000000  0.50000000  0.50000000  1
  Mn  Mn1  1  0.00000000  0.00000000  0.50000000  1
  Mn  Mn2  1  0.50000000  0.00000000  0.00000000  1
  Mn  Mn3  1  0.00000000  0.50000000  0.00000000  1
  H  H4  1  0.76603800  0.32490900  0.55230300  1
  H  H5  1  0.26603800  0.17509100  0.44769700  1
  H  H6  1  0.23396200  0.67509100  0.44769700  1
  H  H7  1  0.73396200  0.82490900  0.55230300  1
  H  H8  1  0.68301200  0.28999000  0.71502500  1
  H  H9  1  0.18301200  0.21001000  0.28497500  1
  H  H10  1  0.31698800  0.71001000  0.28497500  1
  H  H11  1  0.81698800  0.78999000  0.71502500  1
  H  H12  1  0.59436300  0.60809300  0.13157500  1
  H  H13  1  0.09436300  0.89190700  0.86842500  1
  H  H14  1  0.40563700  0.39190700  0.86842500  1
  H  H15  1  0.90563700  0.10809300  0.13157500  1
  H  H16  1  0.69710300  0.68817500  0.98808500  1
  H  H17  1  0.19710300  0.81182500  0.01191500  1
  H  H18  1  0.30289700  0.31182500  0.01191500  1
  H  H19  1  0.80289700  0.18817500  0.98808500  1
  H  H20  1  0.55677800  0.20857600  0.24049300  1
  H  H21  1  0.05677800  0.29142400  0.75950700  1
  H  H22  1  0.44322200  0.79142400  0.75950700  1
  H  H23  1  0.94322200  0.70857600  0.24049300  1
  H  H24  1  0.56353100  0.95716200  0.30614500  1
  H  H25  1  0.06353100  0.54283800  0.69385500  1
  H  H26  1  0.43646900  0.04283800  0.69385500  1
  H  H27  1  0.93646900  0.45716200  0.30614500  1
  O  O28  1  0.69270800  0.38343600  0.61265400  1
  O  O29  1  0.19270800  0.11656400  0.38734600  1
  O  O30  1  0.30729200  0.61656400  0.38734600  1
  O  O31  1  0.80729200  0.88343600  0.61265400  1
  O  O32  1  0.60437000  0.70559700  0.03069100  1
  O  O33  1  0.10437000  0.79440300  0.96930900  1
  O  O34  1  0.39563000  0.29440300  0.96930900  1
  O  O35  1  0.89563000  0.20559700  0.03069100  1
  O  O36  1  0.57070700  0.06601200  0.20996600  1
  O  O37  1  0.07070700  0.43398800  0.79003400  1
  O  O38  1  0.42929300  0.93398800  0.79003400  1
  O  O39  1  0.92929300  0.56601200  0.20996600  1
  F  F40  1  0.56132200  0.44072100  0.29736000  1
  F  F41  1  0.06132200  0.05927900  0.70264000  1
  F  F42  1  0.43867800  0.55927900  0.70264000  1
  F  F43  1  0.93867800  0.94072100  0.29736000  1
  F  F44  1  0.42211300  0.22693100  0.54309200  1
  F  F45  1  0.92211300  0.27306900  0.45690800  1
  F  F46  1  0.57788700  0.77306900  0.45690800  1
  F  F47  1  0.07788700  0.72693100  0.54309200  1
  F  F48  1  0.65200000  0.14044800  0.89968600  1
  F  F49  1  0.15200000  0.35955200  0.10031400  1
  F  F50  1  0.34800000  0.85955200  0.10031400  1
  F  F51  1  0.84800000  0.64044800  0.89968600  1
