# generated using pymatgen
data_KMnH5(SO5)2
_symmetry_space_group_name_H-M   'P 1'
_cell_length_a   6.25717000
_cell_length_b   6.71967347
_cell_length_c   6.97520356
_cell_angle_alpha   84.07219745
_cell_angle_beta   80.62797288
_cell_angle_gamma   71.03441490
_symmetry_Int_Tables_number   1
_chemical_formula_structural   KMnH5(SO5)2
_chemical_formula_sum   'K1 Mn1 H5 S2 O10'
_cell_volume   273.25838562
_cell_formula_units_Z   1
loop_
 _symmetry_equiv_pos_site_id
 _symmetry_equiv_pos_as_xyz
  1  'x, y, z'
loop_
 _atom_site_type_symbol
 _atom_site_label
 _atom_site_symmetry_multiplicity
 _atom_site_fract_x
 _atom_site_fract_y
 _atom_site_fract_z
 _atom_site_occupancy
  K  K0  1  0.60018400  0.81584500  0.92480000  1
  Mn  Mn1  1  0.97642300  0.15043800  0.21587600  1
  H  H2  1  0.74774200  0.18671800  0.68867600  1
  H  H3  1  0.61061600  0.74326300  0.50434700  1
  H  H4  1  0.30857300  0.12593900  0.43458800  1
  H  H5  1  0.34709000  0.28019000  0.25734100  1
  H  H6  1  0.31816200  0.72451800  0.28303500  1
  S  S7  1  0.92458500  0.79401500  0.32481700  1
  S  S8  1  0.02784900  0.27364800  0.75767300  1
  O  O9  1  0.30480800  0.15173100  0.28995200  1
  O  O10  1  0.22299700  0.08924400  0.68252500  1
  O  O11  1  0.71719200  0.23618700  0.42631200  1
  O  O12  1  0.13115200  0.84226400  0.15444400  1
  O  O13  1  0.77315300  0.40997300  0.32288800  1
  O  O14  1  0.34194400  0.64524500  0.41588600  1
  O  O15  1  0.05535600  0.30807200  0.96562700  1
  O  O16  1  0.10437400  0.68875900  0.49616800  1
  O  O17  1  0.71983600  0.80068900  0.54703700  1
  O  O18  1  0.80196500  0.18126100  0.81800700  1
