# generated using pymatgen
data_Ca5DyTi5Fe(SiO5)6
_symmetry_space_group_name_H-M   'P 1'
_cell_length_a   5.51109500
_cell_length_b   7.51469186
_cell_length_c   14.50805267
_cell_angle_alpha   86.85499967
_cell_angle_beta   85.18229071
_cell_angle_gamma   72.33402525
_symmetry_Int_Tables_number   1
_chemical_formula_structural   Ca5DyTi5Fe(SiO5)6
_chemical_formula_sum   'Ca5 Dy1 Ti5 Fe1 Si6 O30'
_cell_volume   570.20886464
_cell_formula_units_Z   1
loop_
 _symmetry_equiv_pos_site_id
 _symmetry_equiv_pos_as_xyz
  1  'x, y, z'
loop_
 _atom_site_type_symbol
 _atom_site_label
 _atom_site_symmetry_multiplicity
 _atom_site_fract_x
 _atom_site_fract_y
 _atom_site_fract_z
 _atom_site_occupancy
  Ca  Ca0  1  0.06764900  0.10331900  0.63818300  1
  Ca  Ca1  1  0.39530000  0.77579300  0.97258900  1
  Ca  Ca2  1  0.60215000  0.22679600  0.02511400  1
  Ca  Ca3  1  0.93596300  0.89509500  0.36484900  1
  Ca  Ca4  1  0.27090500  0.55721400  0.69350000  1
  Dy  Dy5  1  0.72865700  0.44310600  0.30788400  1
  Ti  Ti6  1  0.66226300  0.84311400  0.16834600  1
  Ti  Ti7  1  0.99400800  0.50560400  0.00030600  1
  Ti  Ti8  1  0.00638600  0.49389800  0.50057900  1
  Ti  Ti9  1  0.33186900  0.16843000  0.83372000  1
  Ti  Ti10  1  0.66643300  0.83233300  0.66590400  1
  Fe  Fe11  1  0.33364900  0.16464300  0.33494800  1
  Si  Si12  1  0.06695700  0.11140000  0.14448700  1
  Si  Si13  1  0.40669800  0.77053400  0.47619700  1
  Si  Si14  1  0.26268300  0.55624000  0.18998000  1
  Si  Si15  1  0.74107500  0.43938800  0.80945100  1
  Si  Si16  1  0.59708200  0.22784500  0.52328700  1
  Si  Si17  1  0.92541100  0.89437100  0.85594100  1
  O  O18  1  0.43488000  0.68577400  0.22226900  1
  O  O19  1  0.73850500  0.69033000  0.05989000  1
  O  O20  1  0.76995900  0.35392700  0.55679800  1
  O  O21  1  0.93115700  0.31529900  0.09458100  1
  O  O22  1  0.03898500  0.14190900  0.25717500  1
  O  O23  1  0.96203000  0.63799000  0.23230200  1
  O  O24  1  0.06188800  0.36180700  0.39251400  1
  O  O25  1  0.10047500  0.02191700  0.88584600  1
  O  O26  1  0.26719100  0.97815000  0.43201800  1
  O  O27  1  0.36751000  0.01760500  0.10462700  1
  O  O28  1  0.39830300  0.78755900  0.58979100  1
  O  O29  1  0.27375600  0.53943700  0.07647900  1
  O  O30  1  0.29752000  0.31726100  0.56498000  1
  O  O31  1  0.41660300  0.35335200  0.23761900  1
  O  O32  1  0.41024100  0.02291000  0.72567200  1
  O  O33  1  0.60144800  0.96798100  0.27474100  1
  O  O34  1  0.60543400  0.64554900  0.76106000  1
  O  O35  1  0.70144500  0.67289200  0.43051300  1
  O  O36  1  0.72521300  0.46222700  0.92278100  1
  O  O37  1  0.61417500  0.21956500  0.40921100  1
  O  O38  1  0.62829200  0.98582000  0.89904200  1
  O  O39  1  0.73072100  0.01793000  0.56772900  1
  O  O40  1  0.90007300  0.97767000  0.11384400  1
  O  O41  1  0.92945100  0.64657800  0.60433800  1
  O  O42  1  0.03863200  0.34726100  0.76720400  1
  O  O43  1  0.94047900  0.87268500  0.74257300  1
  O  O44  1  0.06288100  0.68768700  0.90402800  1
  O  O45  1  0.23545400  0.64036500  0.44506100  1
  O  O46  1  0.25679800  0.30985000  0.93951400  1
  O  O47  1  0.56536200  0.31159000  0.78053500  1
