# generated using pymatgen
data_ZrCrCu2(PO4)3
_symmetry_space_group_name_H-M   'P 1'
_cell_length_a   8.84492300
_cell_length_b   8.86895053
_cell_length_c   8.91911230
_cell_angle_alpha   60.36523220
_cell_angle_beta   60.98696537
_cell_angle_gamma   60.62390475
_symmetry_Int_Tables_number   1
_chemical_formula_structural   ZrCrCu2(PO4)3
_chemical_formula_sum   'Zr2 Cr2 Cu4 P6 O24'
_cell_volume   502.06327889
_cell_formula_units_Z   2
loop_
 _symmetry_equiv_pos_site_id
 _symmetry_equiv_pos_as_xyz
  1  'x, y, z'
loop_
 _atom_site_type_symbol
 _atom_site_label
 _atom_site_symmetry_multiplicity
 _atom_site_fract_x
 _atom_site_fract_y
 _atom_site_fract_z
 _atom_site_occupancy
  Zr  Zr0  1  0.86229500  0.42546600  0.85494700  1
  Zr  Zr1  1  0.14168500  0.57910000  0.14510200  1
  Cr  Cr2  1  0.64303200  0.07432100  0.64357200  1
  Cr  Cr3  1  0.35630900  0.92599300  0.35538400  1
  Cu  Cu4  1  0.21498800  0.10648600  0.72897400  1
  Cu  Cu5  1  0.61075600  0.48006400  0.35220400  1
  Cu  Cu6  1  0.38541300  0.52069900  0.64758100  1
  Cu  Cu7  1  0.85856700  0.97652800  0.11532500  1
  P  P8  1  0.53915200  0.23922300  0.26126900  1
  P  P9  1  0.26053500  0.24136600  0.96493000  1
  P  P10  1  0.96744700  0.23787600  0.53036900  1
  P  P11  1  0.03307700  0.76380500  0.46540700  1
  P  P12  1  0.73734100  0.76159700  0.03711200  1
  P  P13  1  0.45627000  0.75781400  0.74129500  1
  O  O14  1  0.47337800  0.94514500  0.69283400  1
  O  O15  1  0.86793200  0.92970400  0.50128400  1
  O  O16  1  0.72348300  0.23758600  0.09412600  1
  O  O17  1  0.68769100  0.92963900  0.88002600  1
  O  O18  1  0.38474400  0.41725100  0.20575400  1
  O  O19  1  0.56976300  0.25037600  0.41395000  1
  O  O20  1  0.09713900  0.24522400  0.93677100  1
  O  O21  1  0.41863300  0.25482400  0.77538200  1
  O  O22  1  0.00459000  0.58263400  0.62243200  1
  O  O23  1  0.77927400  0.24222400  0.55938000  1
  O  O24  1  0.05194900  0.75910900  0.28326900  1
  O  O25  1  0.79962200  0.57823000  0.00757400  1
  O  O26  1  0.20571600  0.42180200  0.99507300  1
  O  O27  1  0.96141500  0.24125000  0.71011200  1
  O  O28  1  0.21885600  0.75719000  0.44730100  1
  O  O29  1  0.99535600  0.41783300  0.37462200  1
  O  O30  1  0.57971500  0.74588200  0.22491400  1
  O  O31  1  0.90016400  0.76390400  0.06302900  1
  O  O32  1  0.43283700  0.74771300  0.58444900  1
  O  O33  1  0.62527100  0.59464300  0.78591900  1
  O  O34  1  0.30901800  0.06966500  0.12026900  1
  O  O35  1  0.28237600  0.74522500  0.90868700  1
  O  O36  1  0.12873200  0.06885400  0.49688100  1
  O  O37  1  0.50507700  0.06495600  0.31309100  1
