# generated using pymatgen
data_Ca5Dy3Ti5Mn3O24
_symmetry_space_group_name_H-M   'P 1'
_cell_length_a   5.38336500
_cell_length_b   5.61603520
_cell_length_c   15.27216256
_cell_angle_alpha   90.12317075
_cell_angle_beta   90.16801405
_cell_angle_gamma   90.35730292
_symmetry_Int_Tables_number   1
_chemical_formula_structural   Ca5Dy3Ti5Mn3O24
_chemical_formula_sum   'Ca5 Dy3 Ti5 Mn3 O24'
_cell_volume   461.71379787
_cell_formula_units_Z   1
loop_
 _symmetry_equiv_pos_site_id
 _symmetry_equiv_pos_as_xyz
  1  'x, y, z'
loop_
 _atom_site_type_symbol
 _atom_site_label
 _atom_site_symmetry_multiplicity
 _atom_site_fract_x
 _atom_site_fract_y
 _atom_site_fract_z
 _atom_site_occupancy
  Ca  Ca0  1  0.01261500  0.05086100  0.62361200  1
  Ca  Ca1  1  0.01260500  0.05790600  0.12829200  1
  Ca  Ca2  1  0.49042700  0.55296700  0.62360100  1
  Ca  Ca3  1  0.51088800  0.45469700  0.87263200  1
  Ca  Ca4  1  0.99158000  0.95435500  0.87241900  1
  Dy  Dy5  1  0.48525300  0.56921700  0.12927400  1
  Dy  Dy6  1  0.51710300  0.42932200  0.37388600  1
  Dy  Dy7  1  0.97950200  0.92861900  0.37434300  1
  Ti  Ti8  1  0.99271200  0.51741200  0.00120600  1
  Ti  Ti9  1  0.01129200  0.50422700  0.74798600  1
  Ti  Ti10  1  0.00767000  0.49568500  0.50044300  1
  Ti  Ti11  1  0.51333100  0.99893400  0.74899400  1
  Ti  Ti12  1  0.50625200  0.02289400  0.00134800  1
  Mn  Mn13  1  0.00221300  0.49541000  0.25003900  1
  Mn  Mn14  1  0.49654400  0.00033100  0.25051900  1
  Mn  Mn15  1  0.49314200  0.99422800  0.49959200  1
  O  O16  1  0.07838700  0.52108100  0.87616700  1
  O  O17  1  0.10904500  0.53166300  0.37454800  1
  O  O18  1  0.18543700  0.79914400  0.52054900  1
  O  O19  1  0.20949900  0.78154800  0.02663300  1
  O  O20  1  0.20297400  0.78733200  0.72874300  1
  O  O21  1  0.21159900  0.80690200  0.22552300  1
  O  O22  1  0.30310700  0.31818200  0.22698500  1
  O  O23  1  0.28578300  0.29176200  0.72921700  1
  O  O24  1  0.29567500  0.31673500  0.52008000  1
  O  O25  1  0.30514300  0.29573100  0.02773600  1
  O  O26  1  0.41633500  0.02190900  0.87668200  1
  O  O27  1  0.39019500  0.02983600  0.37794400  1
  O  O28  1  0.59174300  0.96593800  0.12249800  1
  O  O29  1  0.58016300  0.97413000  0.62474100  1
  O  O30  1  0.70641300  0.70050700  0.98055800  1
  O  O31  1  0.70554300  0.71391700  0.77163200  1
  O  O32  1  0.71205100  0.68831000  0.46694100  1
  O  O33  1  0.70752400  0.68444800  0.27550300  1
  O  O34  1  0.78432300  0.20943800  0.77171000  1
  O  O35  1  0.78938600  0.18649700  0.28018300  1
  O  O36  1  0.79686700  0.20182000  0.97813000  1
  O  O37  1  0.80122000  0.20255600  0.47014900  1
  O  O38  1  0.91257900  0.47285300  0.62505800  1
  O  O39  1  0.89588100  0.47069500  0.12390500  1
