# generated using pymatgen
data_Ca2Al4Si8H14O31
_symmetry_space_group_name_H-M   'P 1'
_cell_length_a   8.98056900
_cell_length_b   9.29055936
_cell_length_c   9.84376887
_cell_angle_alpha   102.13491465
_cell_angle_beta   90.39377823
_cell_angle_gamma   98.03000023
_symmetry_Int_Tables_number   1
_chemical_formula_structural   Ca2Al4Si8H14O31
_chemical_formula_sum   'Ca2 Al4 Si8 H14 O31'
_cell_volume   794.52791347
_cell_formula_units_Z   1
loop_
 _symmetry_equiv_pos_site_id
 _symmetry_equiv_pos_as_xyz
  1  'x, y, z'
loop_
 _atom_site_type_symbol
 _atom_site_label
 _atom_site_symmetry_multiplicity
 _atom_site_fract_x
 _atom_site_fract_y
 _atom_site_fract_z
 _atom_site_occupancy
  Ca  Ca0  1  0.86065000  0.93698200  0.78162200  1
  Ca  Ca1  1  0.13320100  0.88491600  0.14204600  1
  Al  Al2  1  0.47768000  0.72858600  0.89473000  1
  Al  Al3  1  0.80103500  0.67780800  0.50180600  1
  Al  Al4  1  0.54535900  0.26927500  0.17783700  1
  Al  Al5  1  0.38807700  0.27497700  0.52388400  1
  Si  Si6  1  0.23432300  0.03536600  0.51857800  1
  Si  Si7  1  0.60928200  0.08553900  0.32902900  1
  Si  Si8  1  0.12738500  0.43856000  0.37122700  1
  Si  Si9  1  0.34142600  0.40240600  0.12505600  1
  Si  Si10  1  0.58987400  0.42437700  0.80747500  1
  Si  Si11  1  0.86892000  0.51220200  0.65502200  1
  Si  Si12  1  0.36420200  0.92790000  0.80163500  1
  Si  Si13  1  0.77625600  0.89619000  0.39192300  1
  H  H14  1  0.86713500  0.90628700  0.03806000  1
  H  H15  1  0.52034300  0.82508400  0.23487400  1
  H  H16  1  0.34874500  0.83573400  0.55824200  1
  H  H17  1  0.20944500  0.44588500  0.58019200  1
  H  H18  1  0.56490400  0.29976800  0.87946100  1
  H  H19  1  0.07697000  0.57967700  0.43653000  1
  H  H20  1  0.30240600  0.44650400  0.99549400  1
  H  H21  1  0.90094200  0.25598800  0.13131600  1
  H  H22  1  0.30457100  0.13510400  0.93899900  1
  H  H23  1  0.91189600  0.29558000  0.39765600  1
  H  H24  1  0.02412900  0.34677200  0.69143900  1
  H  H25  1  0.76685200  0.46497700  0.10538200  1
  H  H26  1  0.92786700  0.06014300  0.29898000  1
  H  H27  1  0.15105100  0.14232500  0.77683600  1
  O  O28  1  0.20801300  0.45641300  0.22996000  1
  O  O29  1  0.32857200  0.93061800  0.61580400  1
  O  O30  1  0.57276300  0.89367500  0.31605600  1
  O  O31  1  0.75665200  0.86766600  0.55426300  1
  O  O32  1  0.55226500  0.99724200  0.82751300  1
  O  O33  1  0.56016400  0.57778400  0.90946200  1
  O  O34  1  0.90453600  0.69449100  0.67104400  1
  O  O35  1  0.36119600  0.74605100  0.75506700  1
  O  O36  1  0.91216900  0.95087100  0.28575200  1
  O  O37  1  0.31687500  0.91629000  0.98232300  1
  O  O38  1  0.35812400  0.78525000  0.03794200  1
  O  O39  1  0.79502500  0.71368700  0.33329300  1
  O  O40  1  0.25660200  0.40996700  0.48875500  1
  O  O41  1  0.50706700  0.45894400  0.20436500  1
  O  O42  1  0.96025600  0.91633300  0.98745800  1
  O  O43  1  0.48330400  0.38625000  0.66717100  1
  O  O44  1  0.78005900  0.48163800  0.50142900  1
  O  O45  1  0.02802800  0.43749300  0.65381900  1
  O  O46  1  0.73748600  0.35783500  0.10112600  1
  O  O47  1  0.86606300  0.28623700  0.04702500  1
  O  O48  1  0.06094000  0.03197500  0.59785100  1
  O  O49  1  0.49707000  0.21450100  0.37559500  1
  O  O50  1  0.99453800  0.29358600  0.33158600  1
  O  O51  1  0.35283900  0.22188300  0.09898100  1
  O  O52  1  0.63884900  0.11342500  0.17478000  1
  O  O53  1  0.21753600  0.93334900  0.36617400  1
  O  O54  1  0.28150900  0.08305100  0.83794800  1
  O  O55  1  0.74355100  0.09020800  0.44066500  1
  O  O56  1  0.77059900  0.44614900  0.77207800  1
  O  O57  1  0.62537500  0.88132600  0.87885000  1
  O  O58  1  0.05825000  0.15629800  0.72133200  1
