# generated using pymatgen
data_K6W2N4O3
_symmetry_space_group_name_H-M   'P 1'
_cell_length_a   9.66904200
_cell_length_b   6.83974100
_cell_length_c   11.75756398
_cell_angle_alpha   56.76867799
_cell_angle_beta   90.00000000
_cell_angle_gamma   90.00000000
_symmetry_Int_Tables_number   1
_chemical_formula_structural   K6W2N4O3
_chemical_formula_sum   'K12 W4 N8 O6'
_cell_volume   650.41140817
_cell_formula_units_Z   2
loop_
 _symmetry_equiv_pos_site_id
 _symmetry_equiv_pos_as_xyz
  1  'x, y, z'
loop_
 _atom_site_type_symbol
 _atom_site_label
 _atom_site_symmetry_multiplicity
 _atom_site_fract_x
 _atom_site_fract_y
 _atom_site_fract_z
 _atom_site_occupancy
  K  K0  1  0.52466800  0.20259500  0.54960400  1
  K  K1  1  0.97533200  0.20259500  0.04960400  1
  K  K2  1  0.47533200  0.79740500  0.45039600  1
  K  K3  1  0.02466800  0.79740500  0.95039600  1
  K  K4  1  0.65521700  0.95263500  0.93187200  1
  K  K5  1  0.84478300  0.95263500  0.43187200  1
  K  K6  1  0.34478300  0.04736500  0.06812800  1
  K  K7  1  0.15521700  0.04736500  0.56812800  1
  K  K8  1  0.71236200  0.59528400  0.77972500  1
  K  K9  1  0.78763800  0.59528400  0.27972500  1
  K  K10  1  0.28763800  0.40471600  0.22027500  1
  K  K11  1  0.21236200  0.40471600  0.72027500  1
  W  W12  1  0.64352400  0.31030800  0.13521200  1
  W  W13  1  0.85647600  0.31030800  0.63521200  1
  W  W14  1  0.35647600  0.68969200  0.86478800  1
  W  W15  1  0.14352400  0.68969200  0.36478800  1
  N  N16  1  0.67345500  0.04184300  0.13873100  1
  N  N17  1  0.82654500  0.04184300  0.63873100  1
  N  N18  1  0.32654500  0.95815700  0.86126900  1
  N  N19  1  0.17345500  0.95815700  0.36126900  1
  N  N20  1  0.70067800  0.49032900  0.57728000  1
  N  N21  1  0.79932200  0.49032900  0.07728000  1
  N  N22  1  0.29932200  0.50967100  0.42272000  1
  N  N23  1  0.20067800  0.50967100  0.92272000  1
  O  O24  1  0.50000000  0.50000000  0.00000000  1
  O  O25  1  0.00000000  0.50000000  0.50000000  1
  O  O26  1  0.59612300  0.24066000  0.30924900  1
  O  O27  1  0.90387700  0.24066000  0.80924900  1
  O  O28  1  0.40387700  0.75934000  0.69075100  1
  O  O29  1  0.09612300  0.75934000  0.19075100  1
