# generated using pymatgen
data_K2Cr2AsHO10
_symmetry_space_group_name_H-M   'P 1'
_cell_length_a   7.87066403
_cell_length_b   7.87066403
_cell_length_c   14.64917300
_cell_angle_alpha   90.00000000
_cell_angle_beta   90.00000000
_cell_angle_gamma   120.00000023
_symmetry_Int_Tables_number   1
_chemical_formula_structural   K2Cr2AsHO10
_chemical_formula_sum   'K6 Cr6 As3 H3 O30'
_cell_volume   785.89854896
_cell_formula_units_Z   3
loop_
 _symmetry_equiv_pos_site_id
 _symmetry_equiv_pos_as_xyz
  1  'x, y, z'
loop_
 _atom_site_type_symbol
 _atom_site_label
 _atom_site_symmetry_multiplicity
 _atom_site_fract_x
 _atom_site_fract_y
 _atom_site_fract_z
 _atom_site_occupancy
  K  K0  1  0.56423800  0.01988600  0.01325000  1
  K  K1  1  0.45564800  0.43576200  0.67991700  1
  K  K2  1  0.98011400  0.54435200  0.34658400  1
  K  K3  1  0.38940600  0.39497700  0.18596600  1
  K  K4  1  0.00557000  0.61059400  0.85263200  1
  K  K5  1  0.60502300  0.99443000  0.51929900  1
  Cr  Cr6  1  0.57168700  0.99398900  0.27281900  1
  Cr  Cr7  1  0.42230200  0.42831300  0.93948600  1
  Cr  Cr8  1  0.00601100  0.57769800  0.60615300  1
  Cr  Cr9  1  0.99730000  0.57921700  0.09661500  1
  Cr  Cr10  1  0.58191700  0.00270000  0.76328100  1
  Cr  Cr11  1  0.42078300  0.41808300  0.42994800  1
  As  As12  1  0.87367700  0.89377900  0.16794200  1
  As  As13  1  0.02010200  0.12632300  0.83460800  1
  As  As14  1  0.10622100  0.97989800  0.50127500  1
  H  H15  1  0.95241400  0.96963600  0.98080000  1
  H  H16  1  0.01722300  0.04758600  0.64746700  1
  H  H17  1  0.03036400  0.98277700  0.31413400  1
  O  O18  1  0.74854800  0.13822200  0.34061800  1
  O  O19  1  0.38967400  0.25145200  0.00728500  1
  O  O20  1  0.86177800  0.61032600  0.67395100  1
  O  O21  1  0.53074700  0.12167500  0.19778100  1
  O  O22  1  0.59092800  0.46925300  0.86444700  1
  O  O23  1  0.87832500  0.40907200  0.53111400  1
  O  O24  1  0.37664900  0.85590300  0.33274800  1
  O  O25  1  0.47925500  0.62335100  0.99941500  1
  O  O26  1  0.14409700  0.52074500  0.66608100  1
  O  O27  1  0.64250300  0.83191900  0.21170300  1
  O  O28  1  0.18941500  0.35749700  0.87836900  1
  O  O29  1  0.16808100  0.81058500  0.54503600  1
  O  O30  1  0.91038400  0.01218700  0.06886000  1
  O  O31  1  0.10180200  0.08961600  0.73552700  1
  O  O32  1  0.98781300  0.89819800  0.40219300  1
  O  O33  1  0.05718300  0.03417200  0.24501100  1
  O  O34  1  0.97698900  0.94281700  0.91167700  1
  O  O35  1  0.96582800  0.02301100  0.57834400  1
  O  O36  1  0.84696200  0.65876000  0.16234200  1
  O  O37  1  0.81179700  0.15303800  0.82900800  1
  O  O38  1  0.34124000  0.18820300  0.49567500  1
  O  O39  1  0.16802700  0.76598700  0.04243000  1
  O  O40  1  0.59796000  0.83197300  0.70909600  1
  O  O41  1  0.23401300  0.40204000  0.37576300  1
  O  O42  1  0.09095400  0.49144000  0.16879800  1
  O  O43  1  0.40048600  0.90904600  0.83546500  1
  O  O44  1  0.50856000  0.59951400  0.50213200  1
  O  O45  1  0.85673600  0.41330400  0.02317100  1
  O  O46  1  0.55656900  0.14326400  0.68983700  1
  O  O47  1  0.58669600  0.44343100  0.35650400  1
