# generated using pymatgen
data_CoH6(SeO4)2
_symmetry_space_group_name_H-M   'P 1'
_cell_length_a   7.00526900
_cell_length_b   7.21605900
_cell_length_c   8.45501134
_cell_angle_alpha   61.46274728
_cell_angle_beta   90.00000000
_cell_angle_gamma   90.00000000
_symmetry_Int_Tables_number   1
_chemical_formula_structural   CoH6(SeO4)2
_chemical_formula_sum   'Co2 H12 Se4 O16'
_cell_volume   375.47770794
_cell_formula_units_Z   2
loop_
 _symmetry_equiv_pos_site_id
 _symmetry_equiv_pos_as_xyz
  1  'x, y, z'
loop_
 _atom_site_type_symbol
 _atom_site_label
 _atom_site_symmetry_multiplicity
 _atom_site_fract_x
 _atom_site_fract_y
 _atom_site_fract_z
 _atom_site_occupancy
  Co  Co0  1  0.50000000  0.50000000  0.50000000  1
  Co  Co1  1  0.00000000  0.50000000  0.00000000  1
  H  H2  1  0.52946500  0.99493600  0.26415600  1
  H  H3  1  0.97053500  0.99493600  0.76415600  1
  H  H4  1  0.47053500  0.00506400  0.73584400  1
  H  H5  1  0.02946500  0.00506400  0.23584400  1
  H  H6  1  0.79457100  0.61016900  0.61415400  1
  H  H7  1  0.70542900  0.61016900  0.11415400  1
  H  H8  1  0.20542900  0.38983100  0.38584600  1
  H  H9  1  0.29457100  0.38983100  0.88584600  1
  H  H10  1  0.83066300  0.71373800  0.40224500  1
  H  H11  1  0.66933700  0.71373800  0.90224500  1
  H  H12  1  0.16933700  0.28626200  0.59775500  1
  H  H13  1  0.33066300  0.28626200  0.09775500  1
  Se  Se14  1  0.73144700  0.17617200  0.37719700  1
  Se  Se15  1  0.76855300  0.17617200  0.87719700  1
  Se  Se16  1  0.26855300  0.82382800  0.62280300  1
  Se  Se17  1  0.23144700  0.82382800  0.12280300  1
  O  O18  1  0.66519100  0.42325000  0.33404900  1
  O  O19  1  0.83480900  0.42325000  0.83404900  1
  O  O20  1  0.33480900  0.57675000  0.66595100  1
  O  O21  1  0.16519100  0.57675000  0.16595100  1
  O  O22  1  0.92442400  0.22214500  0.24039600  1
  O  O23  1  0.57557600  0.22214500  0.74039600  1
  O  O24  1  0.07557600  0.77785500  0.75960400  1
  O  O25  1  0.42442400  0.77785500  0.25960400  1
  O  O26  1  0.54267700  0.14491500  0.24122100  1
  O  O27  1  0.95732300  0.14491500  0.74122100  1
  O  O28  1  0.45732300  0.85508500  0.75877900  1
  O  O29  1  0.04267700  0.85508500  0.25877900  1
  O  O30  1  0.73302300  0.69355200  0.49426100  1
  O  O31  1  0.76697700  0.69355200  0.99426100  1
  O  O32  1  0.26697700  0.30644800  0.50573900  1
  O  O33  1  0.23302300  0.30644800  0.00573900  1
