# generated using pymatgen
data_CoH18C4N8(ClO)4
_symmetry_space_group_name_H-M   'P 1'
_cell_length_a   11.41147600
_cell_length_b   6.50136900
_cell_length_c   11.94078527
_cell_angle_alpha   71.63787859
_cell_angle_beta   90.00000000
_cell_angle_gamma   90.00000000
_symmetry_Int_Tables_number   1
_chemical_formula_structural   CoH18C4N8(ClO)4
_chemical_formula_sum   'Co2 H36 C8 N16 Cl8 O8'
_cell_volume   840.78392207
_cell_formula_units_Z   2
loop_
 _symmetry_equiv_pos_site_id
 _symmetry_equiv_pos_as_xyz
  1  'x, y, z'
loop_
 _atom_site_type_symbol
 _atom_site_label
 _atom_site_symmetry_multiplicity
 _atom_site_fract_x
 _atom_site_fract_y
 _atom_site_fract_z
 _atom_site_occupancy
  Co  Co0  1  0.00000000  0.00000000  0.50000000  1
  Co  Co1  1  0.50000000  0.00000000  0.00000000  1
  H  H2  1  0.78861000  0.21702900  0.49447600  1
  H  H3  1  0.71139000  0.21702900  0.99447600  1
  H  H4  1  0.21139000  0.78297100  0.50552400  1
  H  H5  1  0.28861000  0.78297100  0.00552400  1
  H  H6  1  0.89538400  0.36313500  0.50320300  1
  H  H7  1  0.60461600  0.36313500  0.00320300  1
  H  H8  1  0.10461600  0.63686500  0.49679700  1
  H  H9  1  0.39538400  0.63686500  0.99679700  1
  H  H10  1  0.70959300  0.20516500  0.78849800  1
  H  H11  1  0.79040700  0.20516500  0.28849800  1
  H  H12  1  0.29040700  0.79483500  0.21150200  1
  H  H13  1  0.20959300  0.79483500  0.71150200  1
  H  H14  1  0.82390000  0.18283100  0.69252900  1
  H  H15  1  0.67610000  0.18283100  0.19252900  1
  H  H16  1  0.17610000  0.81716900  0.30747100  1
  H  H17  1  0.32390000  0.81716900  0.80747100  1
  H  H18  1  0.00671800  0.16828200  0.74211300  1
  H  H19  1  0.49328200  0.16828200  0.24211300  1
  H  H20  1  0.99328200  0.83171800  0.25788700  1
  H  H21  1  0.50671800  0.83171800  0.75788700  1
  H  H22  1  0.26794000  0.26353500  0.86162800  1
  H  H23  1  0.23206000  0.26353500  0.36162800  1
  H  H24  1  0.73206000  0.73646500  0.13837200  1
  H  H25  1  0.76794000  0.73646500  0.63837200  1
  H  H26  1  0.19317500  0.22498900  0.73924200  1
  H  H27  1  0.30682500  0.22498900  0.23924200  1
  H  H28  1  0.80682500  0.77501100  0.26075800  1
  H  H29  1  0.69317500  0.77501100  0.76075800  1
  H  H30  1  0.15733300  0.31531700  0.01444300  1
  H  H31  1  0.34266700  0.31531700  0.51444300  1
  H  H32  1  0.84266700  0.68468300  0.98555700  1
  H  H33  1  0.65733300  0.68468300  0.48555700  1
  H  H34  1  0.00033200  0.29453000  0.00907200  1
  H  H35  1  0.49966800  0.29453000  0.50907200  1
  H  H36  1  0.99966800  0.70547000  0.99092800  1
  H  H37  1  0.50033200  0.70547000  0.49092800  1
  C  C38  1  0.87522900  0.22743200  0.84882500  1
  C  C39  1  0.62477100  0.22743200  0.34882500  1
  C  C40  1  0.12477100  0.77256800  0.15117500  1
  C  C41  1  0.37522900  0.77256800  0.65117500  1
  C  C42  1  0.08921100  0.25195000  0.87208500  1
  C  C43  1  0.41078900  0.25195000  0.37208500  1
  C  C44  1  0.91078900  0.74805000  0.12791500  1
  C  C45  1  0.58921100  0.74805000  0.62791500  1
  N  N46  1  0.79735500  0.20138400  0.77110900  1
  N  N47  1  0.70264500  0.20138400  0.27110900  1
  N  N48  1  0.20264500  0.79861600  0.22889100  1
  N  N49  1  0.29735500  0.79861600  0.72889100  1
  N  N50  1  0.99162600  0.21535300  0.81534000  1
  N  N51  1  0.50837400  0.21535300  0.31534000  1
  N  N52  1  0.00837400  0.78464700  0.18466000  1
  N  N53  1  0.49162600  0.78464700  0.68466000  1
  N  N54  1  0.19186600  0.23889500  0.82229800  1
  N  N55  1  0.30813400  0.23889500  0.32229800  1
  N  N56  1  0.80813400  0.76110500  0.17770200  1
  N  N57  1  0.69186600  0.76110500  0.67770200  1
  N  N58  1  0.08146800  0.29639100  0.97309700  1
  N  N59  1  0.41853200  0.29639100  0.47309700  1
  N  N60  1  0.91853200  0.70360900  0.02690300  1
  N  N61  1  0.58146800  0.70360900  0.52690300  1
  Cl  Cl62  1  0.99933300  0.79643900  0.70467600  1
  Cl  Cl63  1  0.50066700  0.79643900  0.20467600  1
  Cl  Cl64  1  0.00066700  0.20356100  0.29532400  1
  Cl  Cl65  1  0.49933300  0.20356100  0.79532400  1
  Cl  Cl66  1  0.13804900  0.27065800  0.54493000  1
  Cl  Cl67  1  0.36195100  0.27065800  0.04493000  1
  Cl  Cl68  1  0.86195100  0.72934200  0.45507000  1
  Cl  Cl69  1  0.63804900  0.72934200  0.95507000  1
  O  O70  1  0.86803700  0.21115500  0.53192200  1
  O  O71  1  0.63196300  0.21115500  0.03192200  1
  O  O72  1  0.13196300  0.78884500  0.46807800  1
  O  O73  1  0.36803700  0.78884500  0.96807800  1
  O  O74  1  0.84965700  0.25814300  0.94495500  1
  O  O75  1  0.65034300  0.25814300  0.44495500  1
  O  O76  1  0.15034300  0.74185700  0.05504500  1
  O  O77  1  0.34965700  0.74185700  0.55504500  1
