# generated using pymatgen
data_NaFe3P2(H4O7)2
_symmetry_space_group_name_H-M   'P 1'
_cell_length_a   7.41917700
_cell_length_b   7.41917700
_cell_length_c   19.64348800
_cell_angle_alpha   90.00000000
_cell_angle_beta   90.00000000
_cell_angle_gamma   90.00000000
_symmetry_Int_Tables_number   1
_chemical_formula_structural   NaFe3P2(H4O7)2
_chemical_formula_sum   'Na4 Fe12 P8 H32 O56'
_cell_volume   1081.25983382
_cell_formula_units_Z   4
loop_
 _symmetry_equiv_pos_site_id
 _symmetry_equiv_pos_as_xyz
  1  'x, y, z'
loop_
 _atom_site_type_symbol
 _atom_site_label
 _atom_site_symmetry_multiplicity
 _atom_site_fract_x
 _atom_site_fract_y
 _atom_site_fract_z
 _atom_site_occupancy
  Na  Na0  1  0.87398100  0.12601900  0.25000000  1
  Na  Na1  1  0.12601900  0.87398100  0.75000000  1
  Na  Na2  1  0.62601900  0.62601900  0.00000000  1
  Na  Na3  1  0.37398100  0.37398100  0.50000000  1
  Fe  Fe4  1  0.89237600  0.39317700  0.49235100  1
  Fe  Fe5  1  0.10762400  0.60682300  0.99235100  1
  Fe  Fe6  1  0.89317700  0.60762400  0.24235100  1
  Fe  Fe7  1  0.10682300  0.39237600  0.74235100  1
  Fe  Fe8  1  0.60682300  0.10762400  0.00764900  1
  Fe  Fe9  1  0.39317700  0.89237600  0.50764900  1
  Fe  Fe10  1  0.60762400  0.89317700  0.75764900  1
  Fe  Fe11  1  0.39237600  0.10682300  0.25764900  1
  Fe  Fe12  1  0.60268000  0.39732000  0.75000000  1
  Fe  Fe13  1  0.39732000  0.60268000  0.25000000  1
  Fe  Fe14  1  0.89732000  0.89732000  0.50000000  1
  Fe  Fe15  1  0.10268000  0.10268000  0.00000000  1
  P  P16  1  0.64020500  0.13261400  0.39944500  1
  P  P17  1  0.35979500  0.86738600  0.89944500  1
  P  P18  1  0.63261400  0.85979500  0.14944500  1
  P  P19  1  0.36738600  0.14020500  0.64944500  1
  P  P20  1  0.86738600  0.35979500  0.10055500  1
  P  P21  1  0.13261400  0.64020500  0.60055500  1
  P  P22  1  0.85979500  0.63261400  0.85055500  1
  P  P23  1  0.14020500  0.36738600  0.35055500  1
  H  H24  1  0.57009500  0.14997300  0.83697500  1
  H  H25  1  0.42990500  0.85002700  0.33697500  1
  H  H26  1  0.64997300  0.92990500  0.58697500  1
  H  H27  1  0.35002700  0.07009500  0.08697500  1
  H  H28  1  0.85002700  0.42990500  0.66302500  1
  H  H29  1  0.14997300  0.57009500  0.16302500  1
  H  H30  1  0.92990500  0.64997300  0.41302500  1
  H  H31  1  0.07009500  0.35002700  0.91302500  1
  H  H32  1  0.61699300  0.40120600  0.59940200  1
  H  H33  1  0.38300700  0.59879400  0.09940200  1
  H  H34  1  0.90120600  0.88300700  0.34940200  1
  H  H35  1  0.09879400  0.11699300  0.84940200  1
  H  H36  1  0.59879400  0.38300700  0.90059800  1
  H  H37  1  0.40120600  0.61699300  0.40059800  1
  H  H38  1  0.88300700  0.90120600  0.65059800  1
  H  H39  1  0.11699300  0.09879400  0.15059800  1
  H  H40  1  0.65374100  0.60186300  0.56811500  1
  H  H41  1  0.34625900  0.39813700  0.06811500  1
  H  H42  1  0.10186300  0.84625900  0.31811500  1
  H  H43  1  0.89813700  0.15374100  0.81811500  1
  H  H44  1  0.39813700  0.34625900  0.93188500  1
  H  H45  1  0.60186300  0.65374100  0.43188500  1
  H  H46  1  0.84625900  0.10186300  0.68188500  1
  H  H47  1  0.15374100  0.89813700  0.18188500  1
  H  H48  1  0.01522400  0.16329800  0.56841000  1
  H  H49  1  0.98477600  0.83670200  0.06841000  1
  H  H50  1  0.66329800  0.48477600  0.31841000  1
  H  H51  1  0.33670200  0.51522400  0.81841000  1
  H  H52  1  0.83670200  0.98477600  0.93159000  1
  H  H53  1  0.16329800  0.01522400  0.43159000  1
  H  H54  1  0.48477600  0.66329800  0.68159000  1
  H  H55  1  0.51522400  0.33670200  0.18159000  1
  O  O56  1  0.46660900  0.07126500  0.43626100  1
  O  O57  1  0.53339100  0.92873500  0.93626100  1
  O  O58  1  0.57126500  0.03339100  0.18626100  1
  O  O59  1  0.42873500  0.96660900  0.68626100  1
  O  O60  1  0.92873500  0.53339100  0.06373900  1
  O  O61  1  0.07126500  0.46660900  0.56373900  1
  O  O62  1  0.03339100  0.57126500  0.81373900  1
  O  O63  1  0.96660900  0.42873500  0.31373900  1
  O  O64  1  0.79536000  0.99255000  0.40994900  1
  O  O65  1  0.20464000  0.00745000  0.90994900  1
  O  O66  1  0.49255000  0.70464000  0.15994900  1
  O  O67  1  0.50745000  0.29536000  0.65994900  1
  O  O68  1  0.00745000  0.20464000  0.09005100  1
  O  O69  1  0.99255000  0.79536000  0.59005100  1
  O  O70  1  0.70464000  0.49255000  0.84005100  1
  O  O71  1  0.29536000  0.50745000  0.34005100  1
  O  O72  1  0.69664400  0.31766600  0.42928800  1
  O  O73  1  0.30335600  0.68233400  0.92928800  1
  O  O74  1  0.81766600  0.80335600  0.17928800  1
  O  O75  1  0.18233400  0.19664400  0.67928800  1
  O  O76  1  0.68233400  0.30335600  0.07071200  1
  O  O77  1  0.31766600  0.69664400  0.57071200  1
  O  O78  1  0.80335600  0.81766600  0.82071200  1
  O  O79  1  0.19664400  0.18233400  0.32071200  1
  O  O80  1  0.60554000  0.15145600  0.32187500  1
  O  O81  1  0.39446000  0.84854400  0.82187500  1
  O  O82  1  0.65145600  0.89446000  0.07187500  1
  O  O83  1  0.34854400  0.10554000  0.57187500  1
  O  O84  1  0.84854400  0.39446000  0.17812500  1
  O  O85  1  0.15145600  0.60554000  0.67812500  1
  O  O86  1  0.89446000  0.65145600  0.92812500  1
  O  O87  1  0.10554000  0.34854400  0.42812500  1
  O  O88  1  0.63455400  0.14866100  0.79330700  1
  O  O89  1  0.36544600  0.85133900  0.29330700  1
  O  O90  1  0.64866100  0.86544600  0.54330700  1
  O  O91  1  0.35133900  0.13455400  0.04330700  1
  O  O92  1  0.85133900  0.36544600  0.70669300  1
  O  O93  1  0.14866100  0.63455400  0.20669300  1
  O  O94  1  0.86544600  0.64866100  0.45669300  1
  O  O95  1  0.13455400  0.35133900  0.95669300  1
  O  O96  1  0.67271900  0.47121800  0.56070900  1
  O  O97  1  0.32728100  0.52878200  0.06070900  1
  O  O98  1  0.97121800  0.82728100  0.31070900  1
  O  O99  1  0.02878200  0.17271900  0.81070900  1
  O  O100  1  0.52878200  0.32728100  0.93929100  1
  O  O101  1  0.47121800  0.67271900  0.43929100  1
  O  O102  1  0.82728100  0.97121800  0.68929100  1
  O  O103  1  0.17271900  0.02878200  0.18929100  1
  O  O104  1  0.91226200  0.15146800  0.53745900  1
  O  O105  1  0.08773800  0.84853200  0.03745900  1
  O  O106  1  0.65146800  0.58773800  0.28745900  1
  O  O107  1  0.34853200  0.41226200  0.78745900  1
  O  O108  1  0.84853200  0.08773800  0.96254100  1
  O  O109  1  0.15146800  0.91226200  0.46254100  1
  O  O110  1  0.58773800  0.65146800  0.71254100  1
  O  O111  1  0.41226200  0.34853200  0.21254100  1
