# generated using pymatgen
data_V2P2H4O11
_symmetry_space_group_name_H-M   'P 1'
_cell_length_a   7.49467000
_cell_length_b   11.04509400
_cell_length_c   11.43068043
_cell_angle_alpha   60.45050783
_cell_angle_beta   90.00000000
_cell_angle_gamma   90.00000000
_symmetry_Int_Tables_number   1
_chemical_formula_structural   V2P2H4O11
_chemical_formula_sum   'V8 P8 H16 O44'
_cell_volume   823.14876358
_cell_formula_units_Z   4
loop_
 _symmetry_equiv_pos_site_id
 _symmetry_equiv_pos_as_xyz
  1  'x, y, z'
loop_
 _atom_site_type_symbol
 _atom_site_label
 _atom_site_symmetry_multiplicity
 _atom_site_fract_x
 _atom_site_fract_y
 _atom_site_fract_z
 _atom_site_occupancy
  V  V0  1  0.43744800  0.75886800  0.87732300  1
  V  V1  1  0.93744800  0.24113200  0.62267700  1
  V  V2  1  0.56255200  0.24113200  0.12267700  1
  V  V3  1  0.06255200  0.75886800  0.37732300  1
  V  V4  1  0.03211900  0.74445400  0.87285100  1
  V  V5  1  0.53211900  0.25554600  0.62714900  1
  V  V6  1  0.96788100  0.25554600  0.12714900  1
  V  V7  1  0.46788100  0.74445400  0.37285100  1
  P  P8  1  0.73964600  0.53537900  0.09968200  1
  P  P9  1  0.23964600  0.46462100  0.40031800  1
  P  P10  1  0.26035400  0.46462100  0.90031800  1
  P  P11  1  0.76035400  0.53537900  0.59968200  1
  P  P12  1  0.73700000  0.97364400  0.88170700  1
  P  P13  1  0.23700000  0.02635600  0.61829300  1
  P  P14  1  0.26300000  0.02635600  0.11829300  1
  P  P15  1  0.76300000  0.97364400  0.38170700  1
  H  H16  1  0.24391100  0.67156300  0.09048800  1
  H  H17  1  0.74391100  0.32843700  0.40951200  1
  H  H18  1  0.75608900  0.32843700  0.90951200  1
  H  H19  1  0.25608900  0.67156300  0.59048800  1
  H  H20  1  0.24150300  0.89674500  0.01132700  1
  H  H21  1  0.74150300  0.10325500  0.48867300  1
  H  H22  1  0.75849700  0.10325500  0.98867300  1
  H  H23  1  0.25849700  0.89674500  0.51132700  1
  H  H24  1  0.89417500  0.87597600  0.14467700  1
  H  H25  1  0.39417500  0.12402400  0.35532300  1
  H  H26  1  0.10582500  0.12402400  0.85532300  1
  H  H27  1  0.60582500  0.87597600  0.64467700  1
  H  H28  1  0.66211200  0.58893100  0.25585100  1
  H  H29  1  0.16211200  0.41106900  0.24414900  1
  H  H30  1  0.33788800  0.41106900  0.74414900  1
  H  H31  1  0.83788800  0.58893100  0.75585100  1
  O  O32  1  0.24557700  0.75857000  0.00270900  1
  O  O33  1  0.74557700  0.24143000  0.49729100  1
  O  O34  1  0.75442300  0.24143000  0.99729100  1
  O  O35  1  0.25442300  0.75857000  0.50270900  1
  O  O36  1  0.77694300  0.00538900  0.99952600  1
  O  O37  1  0.27694300  0.99461100  0.50047400  1
  O  O38  1  0.22305700  0.99461100  0.00047400  1
  O  O39  1  0.72305700  0.00538900  0.49952600  1
  O  O40  1  0.71645400  0.50813200  0.24768800  1
  O  O41  1  0.21645400  0.49186800  0.25231200  1
  O  O42  1  0.28354600  0.49186800  0.75231200  1
  O  O43  1  0.78354600  0.50813200  0.74768800  1
  O  O44  1  0.55271100  0.79969700  0.72877900  1
  O  O45  1  0.05271100  0.20030300  0.77122100  1
  O  O46  1  0.44728900  0.20030300  0.27122100  1
  O  O47  1  0.94728900  0.79969700  0.22877900  1
  O  O48  1  0.92827400  0.71197700  0.76364200  1
  O  O49  1  0.42827400  0.28802300  0.73635800  1
  O  O50  1  0.07172600  0.28802300  0.23635800  1
  O  O51  1  0.57172600  0.71197700  0.26364200  1
  O  O52  1  0.57595100  0.61357700  0.01651700  1
  O  O53  1  0.07595100  0.38642300  0.48348300  1
  O  O54  1  0.42404900  0.38642300  0.98348300  1
  O  O55  1  0.92404900  0.61357700  0.51651700  1
  O  O56  1  0.55766000  0.89906400  0.90739000  1
  O  O57  1  0.05766000  0.10093600  0.59261000  1
  O  O58  1  0.44234000  0.10093600  0.09261000  1
  O  O59  1  0.94234000  0.89906400  0.40739000  1
  O  O60  1  0.91695600  0.60780300  0.04267200  1
  O  O61  1  0.41695600  0.39219700  0.45732800  1
  O  O62  1  0.08304400  0.39219700  0.95732800  1
  O  O63  1  0.58304400  0.60780300  0.54267200  1
  O  O64  1  0.89811900  0.89334800  0.87661200  1
  O  O65  1  0.39811900  0.10665200  0.62338800  1
  O  O66  1  0.10188100  0.10665200  0.12338800  1
  O  O67  1  0.60188100  0.89334800  0.37661200  1
  O  O68  1  0.74460200  0.38701500  0.11397800  1
  O  O69  1  0.24460200  0.61298500  0.38602200  1
  O  O70  1  0.25539800  0.61298500  0.88602200  1
  O  O71  1  0.75539800  0.38701500  0.61397800  1
  O  O72  1  0.72564300  0.11402600  0.74578400  1
  O  O73  1  0.22564300  0.88597400  0.75421600  1
  O  O74  1  0.27435700  0.88597400  0.25421600  1
  O  O75  1  0.77435700  0.11402600  0.24578400  1
