# generated using pymatgen
data_NiH12(NO6)2
_symmetry_space_group_name_H-M   'P 1'
_cell_length_a   5.82074200
_cell_length_b   7.73850284
_cell_length_c   11.88792688
_cell_angle_alpha   103.11596926
_cell_angle_beta   99.09134817
_cell_angle_gamma   102.85482749
_symmetry_Int_Tables_number   1
_chemical_formula_structural   NiH12(NO6)2
_chemical_formula_sum   'Ni2 H24 N4 O24'
_cell_volume   496.02892260
_cell_formula_units_Z   2
loop_
 _symmetry_equiv_pos_site_id
 _symmetry_equiv_pos_as_xyz
  1  'x, y, z'
loop_
 _atom_site_type_symbol
 _atom_site_label
 _atom_site_symmetry_multiplicity
 _atom_site_fract_x
 _atom_site_fract_y
 _atom_site_fract_z
 _atom_site_occupancy
  Ni  Ni0  1  0.81625700  0.85829000  0.76682800  1
  Ni  Ni1  1  0.18374300  0.14171000  0.23317200  1
  H  H2  1  0.79306400  0.52657800  0.62907400  1
  H  H3  1  0.20693600  0.47342200  0.37092600  1
  H  H4  1  0.84803900  0.67360400  0.55991400  1
  H  H5  1  0.15196100  0.32639600  0.44008600  1
  H  H6  1  0.23570300  0.84038900  0.85113700  1
  H  H7  1  0.76429700  0.15961100  0.14886300  1
  H  H8  1  0.28204400  0.05178100  0.85428100  1
  H  H9  1  0.71795600  0.94821900  0.14571900  1
  H  H10  1  0.82459200  0.18296800  0.88746600  1
  H  H11  1  0.17540800  0.81703200  0.11253400  1
  H  H12  1  0.77797400  0.04604500  0.96810800  1
  H  H13  1  0.22202600  0.95395500  0.03189200  1
  H  H14  1  0.35569600  0.65306300  0.70476000  1
  H  H15  1  0.64430400  0.34693700  0.29524000  1
  H  H16  1  0.39597900  0.75695000  0.60834500  1
  H  H17  1  0.60402100  0.24305000  0.39165500  1
  H  H18  1  0.05260000  0.05822300  0.64553500  1
  H  H19  1  0.94740000  0.94177700  0.35446500  1
  H  H20  1  0.79920300  0.11104800  0.64121100  1
  H  H21  1  0.20079700  0.88895200  0.35878900  1
  H  H22  1  0.84617800  0.58396100  0.86561700  1
  H  H23  1  0.15382200  0.41603900  0.13438300  1
  H  H24  1  0.60442700  0.64812900  0.88213100  1
  H  H25  1  0.39557300  0.35187100  0.11786900  1
  N  N26  1  0.79716500  0.54727200  0.13053400  1
  N  N27  1  0.20283500  0.45272800  0.86946600  1
  N  N28  1  0.57852700  0.76322700  0.39346700  1
  N  N29  1  0.42147300  0.23677300  0.60653300  1
  O  O30  1  0.89506700  0.65197500  0.63808900  1
  O  O31  1  0.10493300  0.34802500  0.36191100  1
  O  O32  1  0.17212500  0.94848900  0.86996100  1
  O  O33  1  0.82787500  0.05151100  0.13003900  1
  O  O34  1  0.73085600  0.05977900  0.88778900  1
  O  O35  1  0.26914400  0.94022100  0.11221100  1
  O  O36  1  0.44518900  0.76752900  0.69237400  1
  O  O37  1  0.55481100  0.23247100  0.30762600  1
  O  O38  1  0.88187800  0.01619700  0.65284000  1
  O  O39  1  0.11812200  0.98380300  0.34716000  1
  O  O40  1  0.77404200  0.68996800  0.87462100  1
  O  O41  1  0.22595800  0.31003200  0.12537900  1
  O  O42  1  0.02350500  0.59421100  0.13543100  1
  O  O43  1  0.97649500  0.40578900  0.86456900  1
  O  O44  1  0.67087800  0.65639400  0.12540800  1
  O  O45  1  0.32912200  0.34360600  0.87459200  1
  O  O46  1  0.69902500  0.38131200  0.13096700  1
  O  O47  1  0.30097500  0.61868800  0.86903300  1
  O  O48  1  0.65414800  0.91156100  0.36785500  1
  O  O49  1  0.34585200  0.08843900  0.63214500  1
  O  O50  1  0.71580400  0.66136500  0.40980700  1
  O  O51  1  0.28419600  0.33863500  0.59019300  1
  O  O52  1  0.35790500  0.71612000  0.40270300  1
  O  O53  1  0.64209500  0.28388000  0.59729700  1
