# generated using pymatgen
data_KFePO4
_symmetry_space_group_name_H-M   'P 1'
_cell_length_a   5.40459200
_cell_length_b   6.76300200
_cell_length_c   10.43027000
_cell_angle_alpha   90.00000000
_cell_angle_beta   90.00000000
_cell_angle_gamma   90.00000000
_symmetry_Int_Tables_number   1
_chemical_formula_structural   KFePO4
_chemical_formula_sum   'K4 Fe4 P4 O16'
_cell_volume   381.23957849
_cell_formula_units_Z   4
loop_
 _symmetry_equiv_pos_site_id
 _symmetry_equiv_pos_as_xyz
  1  'x, y, z'
loop_
 _atom_site_type_symbol
 _atom_site_label
 _atom_site_symmetry_multiplicity
 _atom_site_fract_x
 _atom_site_fract_y
 _atom_site_fract_z
 _atom_site_occupancy
  K  K0  1  0.00000000  0.00000000  0.00000000  1
  K  K1  1  0.50000000  0.00000000  0.50000000  1
  K  K2  1  0.00000000  0.50000000  0.00000000  1
  K  K3  1  0.50000000  0.50000000  0.50000000  1
  Fe  Fe4  1  0.02805900  0.75000000  0.29767900  1
  Fe  Fe5  1  0.47194100  0.75000000  0.79767900  1
  Fe  Fe6  1  0.97194100  0.25000000  0.70232100  1
  Fe  Fe7  1  0.52805900  0.25000000  0.20232100  1
  P  P8  1  0.54181700  0.75000000  0.12594200  1
  P  P9  1  0.95818300  0.75000000  0.62594200  1
  P  P10  1  0.45818300  0.25000000  0.87405800  1
  P  P11  1  0.04181700  0.25000000  0.37405800  1
  O  O12  1  0.74394100  0.25000000  0.85752700  1
  O  O13  1  0.16517400  0.43449600  0.31090500  1
  O  O14  1  0.66517400  0.56550400  0.18909500  1
  O  O15  1  0.83482600  0.93449600  0.68909500  1
  O  O16  1  0.33482600  0.06550400  0.81090500  1
  O  O17  1  0.83482600  0.56550400  0.68909500  1
  O  O18  1  0.33482600  0.43449600  0.81090500  1
  O  O19  1  0.16517400  0.06550400  0.31090500  1
  O  O20  1  0.25605900  0.75000000  0.14247300  1
  O  O21  1  0.75605900  0.25000000  0.35752700  1
  O  O22  1  0.66517400  0.93449600  0.18909500  1
  O  O23  1  0.24394100  0.75000000  0.64247300  1
  O  O24  1  0.60227900  0.75000000  0.97880200  1
  O  O25  1  0.39772100  0.25000000  0.02119800  1
  O  O26  1  0.10227900  0.25000000  0.52119800  1
  O  O27  1  0.89772100  0.75000000  0.47880200  1
