# generated using pymatgen
data_LaBO3
_symmetry_space_group_name_H-M   'P 1'
_cell_length_a   5.13066500
_cell_length_b   4.18818500
_cell_length_c   6.42761709
_cell_angle_alpha   71.68551501
_cell_angle_beta   90.00000000
_cell_angle_gamma   90.00000000
_symmetry_Int_Tables_number   1
_chemical_formula_structural   LaBO3
_chemical_formula_sum   'La2 B2 O6'
_cell_volume   131.12154804
_cell_formula_units_Z   2
loop_
 _symmetry_equiv_pos_site_id
 _symmetry_equiv_pos_as_xyz
  1  'x, y, z'
loop_
 _atom_site_type_symbol
 _atom_site_label
 _atom_site_symmetry_multiplicity
 _atom_site_fract_x
 _atom_site_fract_y
 _atom_site_fract_z
 _atom_site_occupancy
  La  La0  1  0.75000000  0.38334600  0.77619100  1
  La  La1  1  0.25000000  0.61665400  0.22380900  1
  B  B2  1  0.75000000  0.00123600  0.25375300  1
  B  B3  1  0.25000000  0.99876400  0.74624700  1
  O  O4  1  0.98273200  0.15700300  0.17120500  1
  O  O5  1  0.48273200  0.84299700  0.82879500  1
  O  O6  1  0.25000000  0.32848700  0.61137300  1
  O  O7  1  0.75000000  0.67151300  0.38862700  1
  O  O8  1  0.01726800  0.84299700  0.82879500  1
  O  O9  1  0.51726800  0.15700300  0.17120500  1
