# generated using pymatgen
data_Ba2SrI6
_symmetry_space_group_name_H-M   'P 1'
_cell_length_a   7.99448500
_cell_length_b   7.99448500
_cell_length_c   15.61652100
_cell_angle_alpha   90.00000000
_cell_angle_beta   90.00000000
_cell_angle_gamma   90.00000000
_symmetry_Int_Tables_number   1
_chemical_formula_structural   Ba2SrI6
_chemical_formula_sum   'Ba4 Sr2 I12'
_cell_volume   998.07981717
_cell_formula_units_Z   2
loop_
 _symmetry_equiv_pos_site_id
 _symmetry_equiv_pos_as_xyz
  1  'x, y, z'
loop_
 _atom_site_type_symbol
 _atom_site_label
 _atom_site_symmetry_multiplicity
 _atom_site_fract_x
 _atom_site_fract_y
 _atom_site_fract_z
 _atom_site_occupancy
  Ba  Ba0  1  0.00000000  0.00000000  0.83342500  1
  Ba  Ba1  1  0.00000000  0.00000000  0.16657500  1
  Ba  Ba2  1  0.50000000  0.50000000  0.33342500  1
  Ba  Ba3  1  0.50000000  0.50000000  0.66657500  1
  Sr  Sr4  1  0.00000000  0.00000000  0.50000000  1
  Sr  Sr5  1  0.50000000  0.50000000  0.00000000  1
  I  I6  1  0.20544100  0.79455900  0.00000000  1
  I  I7  1  0.19236900  0.80763100  0.65968400  1
  I  I8  1  0.19236900  0.80763100  0.34031600  1
  I  I9  1  0.30763100  0.30763100  0.84031600  1
  I  I10  1  0.30763100  0.30763100  0.15968400  1
  I  I11  1  0.29455900  0.29455900  0.50000000  1
  I  I12  1  0.70544100  0.70544100  0.50000000  1
  I  I13  1  0.69236900  0.69236900  0.15968400  1
  I  I14  1  0.69236900  0.69236900  0.84031600  1
  I  I15  1  0.80763100  0.19236900  0.34031600  1
  I  I16  1  0.80763100  0.19236900  0.65968400  1
  I  I17  1  0.79455900  0.20544100  0.00000000  1
