# generated using pymatgen
data_Rb3TmO3
_symmetry_space_group_name_H-M   'P 1'
_cell_length_a   7.36131100
_cell_length_b   7.96150300
_cell_length_c   11.71309086
_cell_angle_alpha   85.75112071
_cell_angle_beta   90.00000000
_cell_angle_gamma   90.00000000
_symmetry_Int_Tables_number   1
_chemical_formula_structural   Rb3TmO3
_chemical_formula_sum   'Rb12 Tm4 O12'
_cell_volume   684.58361123
_cell_formula_units_Z   4
loop_
 _symmetry_equiv_pos_site_id
 _symmetry_equiv_pos_as_xyz
  1  'x, y, z'
loop_
 _atom_site_type_symbol
 _atom_site_label
 _atom_site_symmetry_multiplicity
 _atom_site_fract_x
 _atom_site_fract_y
 _atom_site_fract_z
 _atom_site_occupancy
  Rb  Rb0  1  0.33124800  0.35803100  0.07892700  1
  Rb  Rb1  1  0.62077900  0.93276100  0.15500100  1
  Rb  Rb2  1  0.80414500  0.37506300  0.19244200  1
  Rb  Rb3  1  0.30414500  0.62493700  0.30755800  1
  Rb  Rb4  1  0.12077900  0.06723900  0.34499900  1
  Rb  Rb5  1  0.83124800  0.64196900  0.42107300  1
  Rb  Rb6  1  0.16875200  0.35803100  0.57892700  1
  Rb  Rb7  1  0.87922100  0.93276100  0.65500100  1
  Rb  Rb8  1  0.69585500  0.37506300  0.69244200  1
  Rb  Rb9  1  0.19585500  0.62493700  0.80755800  1
  Rb  Rb10  1  0.37922100  0.06723900  0.84499900  1
  Rb  Rb11  1  0.66875200  0.64196900  0.92107300  1
  Tm  Tm12  1  0.08756600  0.83999000  0.06655900  1
  Tm  Tm13  1  0.58756600  0.16001000  0.43344100  1
  Tm  Tm14  1  0.41243400  0.83999000  0.56655900  1
  Tm  Tm15  1  0.91243400  0.16001000  0.93344100  1
  O  O16  1  0.35160400  0.74822600  0.04295300  1
  O  O17  1  0.05079900  0.10535300  0.09474100  1
  O  O18  1  0.94102800  0.69126900  0.18794400  1
  O  O19  1  0.44102800  0.30873100  0.31205600  1
  O  O20  1  0.55079900  0.89464700  0.40525900  1
  O  O21  1  0.85160400  0.25177400  0.45704700  1
  O  O22  1  0.14839600  0.74822600  0.54295300  1
  O  O23  1  0.44920100  0.10535300  0.59474100  1
  O  O24  1  0.55897200  0.69126900  0.68794400  1
  O  O25  1  0.05897200  0.30873100  0.81205600  1
  O  O26  1  0.94920100  0.89464700  0.90525900  1
  O  O27  1  0.64839600  0.25177400  0.95704700  1
