# generated using pymatgen
data_Ba2GeO4
_symmetry_space_group_name_H-M   'P 1'
_cell_length_a   5.68417000
_cell_length_b   7.85844200
_cell_length_c   12.82225700
_cell_angle_alpha   90.00000000
_cell_angle_beta   90.00000000
_cell_angle_gamma   90.00000000
_symmetry_Int_Tables_number   1
_chemical_formula_structural   Ba2GeO4
_chemical_formula_sum   'Ba8 Ge4 O16'
_cell_volume   572.75381108
_cell_formula_units_Z   4
loop_
 _symmetry_equiv_pos_site_id
 _symmetry_equiv_pos_as_xyz
  1  'x, y, z'
loop_
 _atom_site_type_symbol
 _atom_site_label
 _atom_site_symmetry_multiplicity
 _atom_site_fract_x
 _atom_site_fract_y
 _atom_site_fract_z
 _atom_site_occupancy
  Ba  Ba0  1  0.00000000  0.00000000  0.00000000  1
  Ba  Ba1  1  0.00000000  0.50000000  0.00000000  1
  Ba  Ba2  1  0.98570300  0.25000000  0.71556000  1
  Ba  Ba3  1  0.51429700  0.25000000  0.21556000  1
  Ba  Ba4  1  0.50000000  0.00000000  0.50000000  1
  Ba  Ba5  1  0.50000000  0.50000000  0.50000000  1
  Ba  Ba6  1  0.48570300  0.75000000  0.78444000  1
  Ba  Ba7  1  0.01429700  0.75000000  0.28444000  1
  Ge  Ge8  1  0.92915900  0.75000000  0.59973900  1
  Ge  Ge9  1  0.57084100  0.75000000  0.09973900  1
  Ge  Ge10  1  0.42915900  0.25000000  0.90026100  1
  Ge  Ge11  1  0.07084100  0.25000000  0.40026100  1
  O  O12  1  0.80901600  0.75000000  0.46930400  1
  O  O13  1  0.80350500  0.93223300  0.66345000  1
  O  O14  1  0.80350500  0.56776700  0.66345000  1
  O  O15  1  0.74220700  0.25000000  0.90513300  1
  O  O16  1  0.75779300  0.25000000  0.40513300  1
  O  O17  1  0.69649500  0.93223300  0.16345000  1
  O  O18  1  0.69649500  0.56776700  0.16345000  1
  O  O19  1  0.69098400  0.75000000  0.96930400  1
  O  O20  1  0.30901600  0.25000000  0.03069600  1
  O  O21  1  0.30350500  0.43223300  0.83655000  1
  O  O22  1  0.30350500  0.06776700  0.83655000  1
  O  O23  1  0.24220700  0.75000000  0.59486700  1
  O  O24  1  0.25779300  0.75000000  0.09486700  1
  O  O25  1  0.19649500  0.43223300  0.33655000  1
  O  O26  1  0.19649500  0.06776700  0.33655000  1
  O  O27  1  0.19098400  0.25000000  0.53069600  1
