# generated using pymatgen
data_Dy2SiO5
_symmetry_space_group_name_H-M   'P 1'
_cell_length_a   6.90346100
_cell_length_b   6.75312700
_cell_length_c   9.14042683
_cell_angle_alpha   74.13203998
_cell_angle_beta   90.00000000
_cell_angle_gamma   90.00000000
_symmetry_Int_Tables_number   1
_chemical_formula_structural   Dy2SiO5
_chemical_formula_sum   'Dy8 Si4 O20'
_cell_volume   409.88841798
_cell_formula_units_Z   4
loop_
 _symmetry_equiv_pos_site_id
 _symmetry_equiv_pos_as_xyz
  1  'x, y, z'
loop_
 _atom_site_type_symbol
 _atom_site_label
 _atom_site_symmetry_multiplicity
 _atom_site_fract_x
 _atom_site_fract_y
 _atom_site_fract_z
 _atom_site_occupancy
  Dy  Dy0  1  0.36001600  0.44300300  0.87395100  1
  Dy  Dy1  1  0.13998400  0.94300300  0.87395100  1
  Dy  Dy2  1  0.12430500  0.76880200  0.52927700  1
  Dy  Dy3  1  0.62430500  0.73119800  0.47072300  1
  Dy  Dy4  1  0.37569500  0.26880200  0.52927700  1
  Dy  Dy5  1  0.87569500  0.23119800  0.47072300  1
  Dy  Dy6  1  0.86001600  0.05699700  0.12604900  1
  Dy  Dy7  1  0.63998400  0.55699700  0.12604900  1
  Si  Si8  1  0.91040100  0.47511200  0.79925600  1
  Si  Si9  1  0.58959900  0.97511200  0.79925600  1
  Si  Si10  1  0.41040100  0.02488800  0.20074400  1
  Si  Si11  1  0.08959900  0.52488800  0.20074400  1
  O  O12  1  0.05003300  0.27582000  0.87224800  1
  O  O13  1  0.71675500  0.48033800  0.89639100  1
  O  O14  1  0.44996700  0.77582000  0.87224800  1
  O  O15  1  0.07203000  0.66221600  0.79243400  1
  O  O16  1  0.78324500  0.98033800  0.89639100  1
  O  O17  1  0.86362100  0.51389000  0.61461400  1
  O  O18  1  0.38082800  0.56100400  0.61353900  1
  O  O19  1  0.42797000  0.16221600  0.79243400  1
  O  O20  1  0.63637900  0.01389000  0.61461400  1
  O  O21  1  0.11917200  0.06100400  0.61353900  1
  O  O22  1  0.88082800  0.93899600  0.38646100  1
  O  O23  1  0.36362100  0.98611000  0.38538600  1
  O  O24  1  0.57203000  0.83778400  0.20756600  1
  O  O25  1  0.61917200  0.43899600  0.38646100  1
  O  O26  1  0.13637900  0.48611000  0.38538600  1
  O  O27  1  0.21675500  0.01966200  0.10360900  1
  O  O28  1  0.92797000  0.33778400  0.20756600  1
  O  O29  1  0.55003300  0.22418000  0.12775200  1
  O  O30  1  0.28324500  0.51966200  0.10360900  1
  O  O31  1  0.94996700  0.72418000  0.12775200  1
