# generated using pymatgen
data_Mg3Te4O11
_symmetry_space_group_name_H-M   'P 1'
_cell_length_a   8.20094400
_cell_length_b   8.29885900
_cell_length_c   8.92046606
_cell_angle_alpha   65.36461301
_cell_angle_beta   70.21186491
_cell_angle_gamma   75.79740348
_symmetry_Int_Tables_number   1
_chemical_formula_structural   Mg3Te4O11
_chemical_formula_sum   'Mg6 Te8 O22'
_cell_volume   515.39643949
_cell_formula_units_Z   2
loop_
 _symmetry_equiv_pos_site_id
 _symmetry_equiv_pos_as_xyz
  1  'x, y, z'
loop_
 _atom_site_type_symbol
 _atom_site_label
 _atom_site_symmetry_multiplicity
 _atom_site_fract_x
 _atom_site_fract_y
 _atom_site_fract_z
 _atom_site_occupancy
  Mg  Mg0  1  0.41041200  0.01399600  0.35380500  1
  Mg  Mg1  1  0.58958800  0.98600400  0.64619500  1
  Mg  Mg2  1  0.97688900  0.18614200  0.65156400  1
  Mg  Mg3  1  0.44773300  0.69820100  0.10657700  1
  Mg  Mg4  1  0.02311100  0.81385800  0.34843600  1
  Mg  Mg5  1  0.55226700  0.30179900  0.89342300  1
  Te  Te6  1  0.24088000  0.72722600  0.77324000  1
  Te  Te7  1  0.81678400  0.62823100  0.78034700  1
  Te  Te8  1  0.18321600  0.37176900  0.21965300  1
  Te  Te9  1  0.75912000  0.27277400  0.22676000  1
  Te  Te10  1  0.29736400  0.46018300  0.54832700  1
  Te  Te11  1  0.80329100  0.89888100  0.05313100  1
  Te  Te12  1  0.70263600  0.53981700  0.45167300  1
  Te  Te13  1  0.19670900  0.10111900  0.94686900  1
  O  O14  1  0.83800700  0.83798700  0.56940700  1
  O  O15  1  0.36633400  0.22410500  0.12161800  1
  O  O16  1  0.16199300  0.16201300  0.43059300  1
  O  O17  1  0.42547400  0.85716700  0.60670900  1
  O  O18  1  0.57452600  0.14283300  0.39329100  1
  O  O19  1  0.68396900  0.37107100  0.02569100  1
  O  O20  1  0.30142200  0.48927400  0.29123500  1
  O  O21  1  0.31603100  0.62892900  0.97430900  1
  O  O22  1  0.92262800  0.62339700  0.33509500  1
  O  O23  1  0.78495800  0.29379700  0.52025800  1
  O  O24  1  0.07737200  0.37660300  0.66490500  1
  O  O25  1  0.66248600  0.51652700  0.24293700  1
  O  O26  1  0.63366600  0.77589500  0.87838200  1
  O  O27  1  0.12229700  0.99614800  0.82961500  1
  O  O28  1  0.23832300  0.89062700  0.13458300  1
  O  O29  1  0.33751400  0.48347300  0.75706300  1
  O  O30  1  0.21504200  0.70620300  0.47974200  1
  O  O31  1  0.76167700  0.10937300  0.86541700  1
  O  O32  1  0.87770300  0.00385200  0.17038500  1
  O  O33  1  0.43150900  0.12499700  0.80229300  1
  O  O34  1  0.56849100  0.87500300  0.19770700  1
  O  O35  1  0.69857800  0.51072600  0.70876500  1
