# generated using pymatgen
data_Dy3Y5O12
_symmetry_space_group_name_H-M   'P 1'
_cell_length_a   9.26143400
_cell_length_b   9.26255039
_cell_length_c   9.26250564
_cell_angle_alpha   109.47092429
_cell_angle_beta   109.45737173
_cell_angle_gamma   109.47538169
_symmetry_Int_Tables_number   1
_chemical_formula_structural   Dy3Y5O12
_chemical_formula_sum   'Dy6 Y10 O24'
_cell_volume   611.74285685
_cell_formula_units_Z   2
loop_
 _symmetry_equiv_pos_site_id
 _symmetry_equiv_pos_as_xyz
  1  'x, y, z'
loop_
 _atom_site_type_symbol
 _atom_site_label
 _atom_site_symmetry_multiplicity
 _atom_site_fract_x
 _atom_site_fract_y
 _atom_site_fract_z
 _atom_site_occupancy
  Dy  Dy0  1  0.46716200  0.24995400  0.71705700  1
  Dy  Dy1  1  0.53263300  0.75006300  0.28269200  1
  Dy  Dy2  1  0.03289000  0.75010700  0.78293400  1
  Dy  Dy3  1  0.25012100  0.28271500  0.03275300  1
  Dy  Dy4  1  0.74986800  0.21722200  0.46730400  1
  Dy  Dy5  1  0.28289500  0.03277600  0.24998500  1
  Y  Y6  1  0.71743500  0.96741900  0.74990900  1
  Y  Y7  1  0.49979200  0.00001300  0.00002200  1
  Y  Y8  1  0.75005600  0.71723200  0.96731000  1
  Y  Y9  1  0.25006000  0.78287800  0.53269000  1
  Y  Y10  1  0.96744900  0.24993200  0.21737900  1
  Y  Y11  1  0.50016500  0.49985900  0.49998100  1
  Y  Y12  1  0.00012100  0.00005500  0.50013200  1
  Y  Y13  1  0.21728900  0.46729600  0.75012100  1
  Y  Y14  1  0.78248400  0.53257300  0.25001300  1
  Y  Y15  1  0.00009400  0.50015900  0.99995000  1
  O  O16  1  0.72891500  0.45709400  0.96818400  1
  O  O17  1  0.51107800  0.04292000  0.77181800  1
  O  O18  1  0.26017800  0.03113800  0.98886000  1
  O  O19  1  0.45782800  0.72833000  0.48860900  1
  O  O20  1  0.23980100  0.22826400  0.77096800  1
  O  O21  1  0.04250500  0.53150100  0.27069800  1
  O  O22  1  0.77109500  0.73921700  0.72817100  1
  O  O23  1  0.98893900  0.76077600  0.53184900  1
  O  O24  1  0.72822900  0.27056600  0.23985300  1
  O  O25  1  0.46851200  0.51071000  0.73913500  1
  O  O26  1  0.96932900  0.22942800  0.95767300  1
  O  O27  1  0.22848400  0.98931100  0.45741700  1
  O  O28  1  0.77133000  0.01123600  0.54189800  1
  O  O29  1  0.03187100  0.77109800  0.04259500  1
  O  O30  1  0.53069700  0.48879700  0.26014400  1
  O  O31  1  0.27155800  0.72935400  0.76081600  1
  O  O32  1  0.01073200  0.23924800  0.46861400  1
  O  O33  1  0.22953700  0.26016900  0.27136600  1
  O  O34  1  0.76022900  0.77165100  0.22946700  1
  O  O35  1  0.95730700  0.46886200  0.72904400  1
  O  O36  1  0.54229000  0.27131500  0.51113200  1
  O  O37  1  0.73914500  0.96847600  0.01096900  1
  O  O38  1  0.27108300  0.54250600  0.03178300  1
  O  O39  1  0.48881300  0.95777700  0.22870400  1
