# generated using pymatgen
data_NaSbO3
_symmetry_space_group_name_H-M   'P 1'
_cell_length_a   5.42710400
_cell_length_b   5.48889100
_cell_length_c   8.62151100
_cell_angle_alpha   90.00000000
_cell_angle_beta   90.00000000
_cell_angle_gamma   90.00000000
_symmetry_Int_Tables_number   1
_chemical_formula_structural   NaSbO3
_chemical_formula_sum   'Na4 Sb4 O12'
_cell_volume   256.82431429
_cell_formula_units_Z   4
loop_
 _symmetry_equiv_pos_site_id
 _symmetry_equiv_pos_as_xyz
  1  'x, y, z'
loop_
 _atom_site_type_symbol
 _atom_site_label
 _atom_site_symmetry_multiplicity
 _atom_site_fract_x
 _atom_site_fract_y
 _atom_site_fract_z
 _atom_site_occupancy
  Na  Na0  1  0.75000000  0.00000000  0.18341900  1
  Na  Na1  1  0.25000000  0.00000000  0.81658100  1
  Na  Na2  1  0.25000000  0.50000000  0.68341900  1
  Na  Na3  1  0.75000000  0.50000000  0.31658100  1
  Sb  Sb4  1  0.25000000  0.00000000  0.40418500  1
  Sb  Sb5  1  0.75000000  0.00000000  0.59581500  1
  Sb  Sb6  1  0.25000000  0.50000000  0.09581500  1
  Sb  Sb7  1  0.75000000  0.50000000  0.90418500  1
  O  O8  1  0.56776400  0.18278600  0.42184900  1
  O  O9  1  0.06776400  0.18278600  0.57815100  1
  O  O10  1  0.61745000  0.25000000  0.75000000  1
  O  O11  1  0.11745000  0.25000000  0.25000000  1
  O  O12  1  0.56776400  0.31721400  0.07815100  1
  O  O13  1  0.06776400  0.31721400  0.92184900  1
  O  O14  1  0.93223600  0.68278600  0.07815100  1
  O  O15  1  0.43223600  0.68278600  0.92184900  1
  O  O16  1  0.88255000  0.75000000  0.75000000  1
  O  O17  1  0.38255000  0.75000000  0.25000000  1
  O  O18  1  0.93223600  0.81721400  0.42184900  1
  O  O19  1  0.43223600  0.81721400  0.57815100  1
