# generated using pymatgen
data_Ca2SiB2O7
_symmetry_space_group_name_H-M   'P 1'
_cell_length_a   7.17018400
_cell_length_b   7.17018400
_cell_length_c   4.86305700
_cell_angle_alpha   90.00000000
_cell_angle_beta   90.00000000
_cell_angle_gamma   90.00000000
_symmetry_Int_Tables_number   1
_chemical_formula_structural   Ca2SiB2O7
_chemical_formula_sum   'Ca4 Si2 B4 O14'
_cell_volume   250.01724264
_cell_formula_units_Z   2
loop_
 _symmetry_equiv_pos_site_id
 _symmetry_equiv_pos_as_xyz
  1  'x, y, z'
loop_
 _atom_site_type_symbol
 _atom_site_label
 _atom_site_symmetry_multiplicity
 _atom_site_fract_x
 _atom_site_fract_y
 _atom_site_fract_z
 _atom_site_occupancy
  Ca  Ca0  1  0.66083400  0.16083400  0.48929600  1
  Ca  Ca1  1  0.16083400  0.33916600  0.51070400  1
  Ca  Ca2  1  0.83916600  0.66083400  0.51070400  1
  Ca  Ca3  1  0.33916600  0.83916600  0.48929600  1
  Si  Si4  1  0.00000000  0.00000000  0.00000000  1
  Si  Si5  1  0.50000000  0.50000000  0.00000000  1
  B  B6  1  0.36739000  0.13261000  0.96301300  1
  B  B7  1  0.86739000  0.36739000  0.03698700  1
  B  B8  1  0.13261000  0.63261000  0.03698700  1
  B  B9  1  0.63261000  0.86739000  0.96301300  1
  O  O10  1  0.50000000  0.00000000  0.84112500  1
  O  O11  1  0.17669400  0.07896500  0.81367800  1
  O  O12  1  0.35612900  0.14387100  0.24801600  1
  O  O13  1  0.92103500  0.17669400  0.18632200  1
  O  O14  1  0.42103500  0.32330600  0.81367800  1
  O  O15  1  0.85612900  0.35612900  0.75198400  1
  O  O16  1  0.67669400  0.42103500  0.18632200  1
  O  O17  1  0.00000000  0.50000000  0.15887500  1
  O  O18  1  0.32330600  0.57896500  0.18632200  1
  O  O19  1  0.14387100  0.64387100  0.75198400  1
  O  O20  1  0.57896500  0.67669400  0.81367800  1
  O  O21  1  0.07896500  0.82330600  0.18632200  1
  O  O22  1  0.64387100  0.85612900  0.24801600  1
  O  O23  1  0.82330600  0.92103500  0.81367800  1
