# generated using pymatgen
data_SmAgO2
_symmetry_space_group_name_H-M   'P 1'
_cell_length_a   6.60825636
_cell_length_b   6.60825636
_cell_length_c   6.60825592
_cell_angle_alpha   32.14723751
_cell_angle_beta   32.14723751
_cell_angle_gamma   32.14724181
_symmetry_Int_Tables_number   1
_chemical_formula_structural   SmAgO2
_chemical_formula_sum   'Sm1 Ag1 O2'
_cell_volume   72.61013759
_cell_formula_units_Z   1
loop_
 _symmetry_equiv_pos_site_id
 _symmetry_equiv_pos_as_xyz
  1  'x, y, z'
loop_
 _atom_site_type_symbol
 _atom_site_label
 _atom_site_symmetry_multiplicity
 _atom_site_fract_x
 _atom_site_fract_y
 _atom_site_fract_z
 _atom_site_occupancy
  Sm  Sm0  1  0.50000000  0.50000000  0.50000000  1
  Ag  Ag1  1  0.00000000  0.00000000  0.00000000  1
  O  O2  1  0.11076200  0.11076200  0.11076200  1
  O  O3  1  0.88923800  0.88923800  0.88923800  1
