# generated using pymatgen
data_Sb6O5F8
_symmetry_space_group_name_H-M   'P 1'
_cell_length_a   4.24631800
_cell_length_b   6.25583715
_cell_length_c   14.20583331
_cell_angle_alpha   93.77927554
_cell_angle_beta   97.97563719
_cell_angle_gamma   90.80480767
_symmetry_Int_Tables_number   1
_chemical_formula_structural   Sb6O5F8
_chemical_formula_sum   'Sb6 O5 F8'
_cell_volume   372.80202068
_cell_formula_units_Z   1
loop_
 _symmetry_equiv_pos_site_id
 _symmetry_equiv_pos_as_xyz
  1  'x, y, z'
loop_
 _atom_site_type_symbol
 _atom_site_label
 _atom_site_symmetry_multiplicity
 _atom_site_fract_x
 _atom_site_fract_y
 _atom_site_fract_z
 _atom_site_occupancy
  Sb  Sb0  1  0.28014500  0.13224800  0.08457300  1
  Sb  Sb1  1  0.09388100  0.30843800  0.74258800  1
  Sb  Sb2  1  0.72031700  0.19856300  0.40277000  1
  Sb  Sb3  1  0.38856800  0.86874900  0.56505600  1
  Sb  Sb4  1  0.71043000  0.79462400  0.95892900  1
  Sb  Sb5  1  0.03403200  0.77996600  0.25380200  1
  O  O6  1  0.02800400  0.96361800  0.37309700  1
  O  O7  1  0.77070800  0.03585100  0.06291900  1
  O  O8  1  0.23270500  0.87416900  0.98868600  1
  O  O9  1  0.33877300  0.97845700  0.20503700  1
  O  O10  1  0.68227800  0.08935300  0.52797000  1
  F  F11  1  0.62677000  0.92029800  0.69497800  1
  F  F12  1  0.10841400  0.59790100  0.70502700  1
  F  F13  1  0.62160100  0.35532200  0.76103200  1
  F  F14  1  0.10249500  0.36808300  0.45778000  1
  F  F15  1  0.75208500  0.57144100  0.05109600  1
  F  F16  1  0.16779300  0.40202700  0.87761000  1
  F  F17  1  0.65791600  0.63485600  0.53171400  1
  F  F18  1  0.41062000  0.62603400  0.31222000  1
