# generated using pymatgen
data_SmC2
_symmetry_space_group_name_H-M   'P 1'
_cell_length_a   4.16004073
_cell_length_b   4.16004073
_cell_length_c   4.16004073
_cell_angle_alpha   125.97860462
_cell_angle_beta   125.97860462
_cell_angle_gamma   79.92330787
_symmetry_Int_Tables_number   1
_chemical_formula_structural   SmC2
_chemical_formula_sum   'Sm1 C2'
_cell_volume   45.52628075
_cell_formula_units_Z   1
loop_
 _symmetry_equiv_pos_site_id
 _symmetry_equiv_pos_as_xyz
  1  'x, y, z'
loop_
 _atom_site_type_symbol
 _atom_site_label
 _atom_site_symmetry_multiplicity
 _atom_site_fract_x
 _atom_site_fract_y
 _atom_site_fract_z
 _atom_site_occupancy
  Sm  Sm0  1  0.00000000  0.00000000  0.00000000  1
  C  C1  1  0.60188800  0.60188800  0.00000000  1
  C  C2  1  0.39811200  0.39811200  0.00000000  1
