# generated using pymatgen
data_BiOF
_symmetry_space_group_name_H-M   'P 1'
_cell_length_a   5.77310200
_cell_length_b   5.81773500
_cell_length_c   6.03810531
_cell_angle_alpha   81.80185530
_cell_angle_beta   90.00000000
_cell_angle_gamma   90.00000000
_symmetry_Int_Tables_number   1
_chemical_formula_structural   BiOF
_chemical_formula_sum   'Bi4 O4 F4'
_cell_volume   200.72566046
_cell_formula_units_Z   4
loop_
 _symmetry_equiv_pos_site_id
 _symmetry_equiv_pos_as_xyz
  1  'x, y, z'
loop_
 _atom_site_type_symbol
 _atom_site_label
 _atom_site_symmetry_multiplicity
 _atom_site_fract_x
 _atom_site_fract_y
 _atom_site_fract_z
 _atom_site_occupancy
  Bi  Bi0  1  0.51944300  0.28939800  0.30024300  1
  Bi  Bi1  1  0.98055700  0.78939800  0.30024300  1
  Bi  Bi2  1  0.01944300  0.21060200  0.69975700  1
  Bi  Bi3  1  0.48055700  0.71060200  0.69975700  1
  O  O4  1  0.24749100  0.01040700  0.46936000  1
  O  O5  1  0.25250900  0.51040700  0.46936000  1
  O  O6  1  0.74749100  0.48959300  0.53064000  1
  O  O7  1  0.75250900  0.98959300  0.53064000  1
  F  F8  1  0.81612400  0.13520600  0.06076300  1
  F  F9  1  0.68387600  0.63520600  0.06076300  1
  F  F10  1  0.31612400  0.36479400  0.93923700  1
  F  F11  1  0.18387600  0.86479400  0.93923700  1
