# generated using pymatgen
data_Sn2OF2
_symmetry_space_group_name_H-M   'P 1'
_cell_length_a   8.04110200
_cell_length_b   8.04110200
_cell_length_c   5.64574000
_cell_angle_alpha   90.00000000
_cell_angle_beta   90.00000000
_cell_angle_gamma   90.00000000
_symmetry_Int_Tables_number   1
_chemical_formula_structural   Sn2OF2
_chemical_formula_sum   'Sn8 O4 F8'
_cell_volume   365.04971706
_cell_formula_units_Z   4
loop_
 _symmetry_equiv_pos_site_id
 _symmetry_equiv_pos_as_xyz
  1  'x, y, z'
loop_
 _atom_site_type_symbol
 _atom_site_label
 _atom_site_symmetry_multiplicity
 _atom_site_fract_x
 _atom_site_fract_y
 _atom_site_fract_z
 _atom_site_occupancy
  Sn  Sn0  1  0.00000000  0.27486600  0.30908400  1
  Sn  Sn1  1  0.77486600  0.50000000  0.80908400  1
  Sn  Sn2  1  0.22513400  0.50000000  0.80908400  1
  Sn  Sn3  1  0.00000000  0.72513400  0.30908400  1
  Sn  Sn4  1  0.50000000  0.77486600  0.19091600  1
  Sn  Sn5  1  0.27486600  0.00000000  0.69091600  1
  Sn  Sn6  1  0.72513400  0.00000000  0.69091600  1
  Sn  Sn7  1  0.50000000  0.22513400  0.19091600  1
  O  O8  1  0.00000000  0.50000000  0.10173600  1
  O  O9  1  0.00000000  0.50000000  0.60173600  1
  O  O10  1  0.50000000  0.00000000  0.89826400  1
  O  O11  1  0.50000000  0.00000000  0.39826400  1
  F  F12  1  0.29595900  0.29595900  0.50000000  1
  F  F13  1  0.70404100  0.29595900  0.50000000  1
  F  F14  1  0.29595900  0.70404100  0.50000000  1
  F  F15  1  0.70404100  0.70404100  0.50000000  1
  F  F16  1  0.79595900  0.79595900  0.00000000  1
  F  F17  1  0.20404100  0.79595900  0.00000000  1
  F  F18  1  0.79595900  0.20404100  0.00000000  1
  F  F19  1  0.20404100  0.20404100  0.00000000  1
