# generated using pymatgen
data_BiOF
_symmetry_space_group_name_H-M   'P 1'
_cell_length_a   3.94908200
_cell_length_b   8.34661500
_cell_length_c   12.42451420
_cell_angle_alpha   70.86738472
_cell_angle_beta   90.00000000
_cell_angle_gamma   90.00000000
_symmetry_Int_Tables_number   1
_chemical_formula_structural   BiOF
_chemical_formula_sum   'Bi8 O8 F8'
_cell_volume   386.90878704
_cell_formula_units_Z   8
loop_
 _symmetry_equiv_pos_site_id
 _symmetry_equiv_pos_as_xyz
  1  'x, y, z'
loop_
 _atom_site_type_symbol
 _atom_site_label
 _atom_site_symmetry_multiplicity
 _atom_site_fract_x
 _atom_site_fract_y
 _atom_site_fract_z
 _atom_site_occupancy
  Bi  Bi0  1  0.75000000  0.91294900  0.87801500  1
  Bi  Bi1  1  0.25000000  0.82786000  0.59383400  1
  Bi  Bi2  1  0.75000000  0.67888700  0.33734300  1
  Bi  Bi3  1  0.75000000  0.44694200  0.87459200  1
  Bi  Bi4  1  0.25000000  0.55305800  0.12540800  1
  Bi  Bi5  1  0.25000000  0.32111300  0.66265700  1
  Bi  Bi6  1  0.75000000  0.17214000  0.40616600  1
  Bi  Bi7  1  0.25000000  0.08705100  0.12198500  1
  O  O8  1  0.75000000  0.88703000  0.49613400  1
  O  O9  1  0.75000000  0.64821000  0.98925200  1
  O  O10  1  0.25000000  0.75091500  0.23655400  1
  O  O11  1  0.25000000  0.50077400  0.75622200  1
  O  O12  1  0.75000000  0.49922600  0.24377800  1
  O  O13  1  0.75000000  0.24908500  0.76344600  1
  O  O14  1  0.25000000  0.35179000  0.01074800  1
  O  O15  1  0.25000000  0.11297000  0.50386600  1
  F  F16  1  0.25000000  0.90076000  0.98801900  1
  F  F17  1  0.25000000  0.98596900  0.75571500  1
  F  F18  1  0.75000000  0.75761600  0.75284200  1
  F  F19  1  0.25000000  0.62523800  0.49983800  1
  F  F20  1  0.75000000  0.37476200  0.50016200  1
  F  F21  1  0.25000000  0.24238400  0.24715800  1
  F  F22  1  0.75000000  0.01403100  0.24428500  1
  F  F23  1  0.75000000  0.09924000  0.01198100  1
