# generated using pymatgen
data_Y3I7O
_symmetry_space_group_name_H-M   'P 1'
_cell_length_a   8.38538661
_cell_length_b   8.38538661
_cell_length_c   14.89043400
_cell_angle_alpha   90.00000000
_cell_angle_beta   90.00000000
_cell_angle_gamma   120.00000481
_symmetry_Int_Tables_number   1
_chemical_formula_structural   Y3I7O
_chemical_formula_sum   'Y6 I14 O2'
_cell_volume   906.74286702
_cell_formula_units_Z   2
loop_
 _symmetry_equiv_pos_site_id
 _symmetry_equiv_pos_as_xyz
  1  'x, y, z'
loop_
 _atom_site_type_symbol
 _atom_site_label
 _atom_site_symmetry_multiplicity
 _atom_site_fract_x
 _atom_site_fract_y
 _atom_site_fract_z
 _atom_site_occupancy
  Y  Y0  1  0.14700800  0.85299200  0.75879300  1
  Y  Y1  1  0.14700800  0.29401700  0.75879300  1
  Y  Y2  1  0.29401700  0.14700800  0.25879300  1
  Y  Y3  1  0.70598300  0.85299200  0.75879300  1
  Y  Y4  1  0.85299200  0.70598300  0.25879300  1
  Y  Y5  1  0.85299200  0.14700800  0.25879300  1
  I  I6  1  0.17049000  0.82951000  0.12765800  1
  I  I7  1  0.00090300  0.50045200  0.37354400  1
  I  I8  1  0.33333300  0.66666700  0.64127700  1
  I  I9  1  0.17049000  0.34098000  0.12765800  1
  I  I10  1  0.49954800  0.99909700  0.37354400  1
  I  I11  1  0.49954800  0.50045200  0.37354400  1
  I  I12  1  0.65902000  0.82951000  0.12765800  1
  I  I13  1  0.34098000  0.17049000  0.62765800  1
  I  I14  1  0.50045200  0.49954800  0.87354400  1
  I  I15  1  0.50045200  0.00090300  0.87354400  1
  I  I16  1  0.66666700  0.33333300  0.14127700  1
  I  I17  1  0.82951000  0.65902000  0.62765800  1
  I  I18  1  0.99909700  0.49954800  0.87354400  1
  I  I19  1  0.82951000  0.17049000  0.62765800  1
  O  O20  1  0.00000000  0.00000000  0.29620400  1
  O  O21  1  0.00000000  0.00000000  0.79620400  1
