# generated using pymatgen
data_LiAgF2
_symmetry_space_group_name_H-M   'P 1'
_cell_length_a   5.67655035
_cell_length_b   5.67655035
_cell_length_c   5.67655035
_cell_angle_alpha   130.92374267
_cell_angle_beta   130.92374267
_cell_angle_gamma   71.93426396
_symmetry_Int_Tables_number   1
_chemical_formula_structural   LiAgF2
_chemical_formula_sum   'Li2 Ag2 F4'
_cell_volume   102.13466469
_cell_formula_units_Z   2
loop_
 _symmetry_equiv_pos_site_id
 _symmetry_equiv_pos_as_xyz
  1  'x, y, z'
loop_
 _atom_site_type_symbol
 _atom_site_label
 _atom_site_symmetry_multiplicity
 _atom_site_fract_x
 _atom_site_fract_y
 _atom_site_fract_z
 _atom_site_occupancy
  Li  Li0  1  0.25000000  0.75000000  0.50000000  1
  Li  Li1  1  0.50000000  0.50000000  0.00000000  1
  Ag  Ag2  1  0.00000000  0.00000000  0.00000000  1
  Ag  Ag3  1  0.75000000  0.25000000  0.50000000  1
  F  F4  1  0.46019700  0.96019700  0.50000000  1
  F  F5  1  0.71019700  0.71019700  0.00000000  1
  F  F6  1  0.03980300  0.53980300  0.50000000  1
  F  F7  1  0.28980300  0.28980300  0.00000000  1
