# generated using pymatgen
data_Cs2Sr2O3
_symmetry_space_group_name_H-M   'P 1'
_cell_length_a   7.51548600
_cell_length_b   7.22712000
_cell_length_c   7.45275156
_cell_angle_alpha   63.80153739
_cell_angle_beta   90.00000000
_cell_angle_gamma   90.00000000
_symmetry_Int_Tables_number   1
_chemical_formula_structural   Cs2Sr2O3
_chemical_formula_sum   'Cs4 Sr4 O6'
_cell_volume   363.21370898
_cell_formula_units_Z   2
loop_
 _symmetry_equiv_pos_site_id
 _symmetry_equiv_pos_as_xyz
  1  'x, y, z'
loop_
 _atom_site_type_symbol
 _atom_site_label
 _atom_site_symmetry_multiplicity
 _atom_site_fract_x
 _atom_site_fract_y
 _atom_site_fract_z
 _atom_site_occupancy
  Cs  Cs0  1  0.35265400  0.82219600  0.92293000  1
  Cs  Cs1  1  0.14734600  0.82219600  0.42293000  1
  Cs  Cs2  1  0.85265400  0.17780400  0.57707000  1
  Cs  Cs3  1  0.64734600  0.17780400  0.07707000  1
  Sr  Sr4  1  0.62070300  0.66674400  0.56885700  1
  Sr  Sr5  1  0.12070300  0.33325600  0.93114300  1
  Sr  Sr6  1  0.87929700  0.66674400  0.06885700  1
  Sr  Sr7  1  0.37929700  0.33325600  0.43114300  1
  O  O8  1  0.50000000  0.00000000  0.50000000  1
  O  O9  1  0.00000000  0.00000000  0.00000000  1
  O  O10  1  0.89126900  0.59815700  0.77079400  1
  O  O11  1  0.39126900  0.40184300  0.72920600  1
  O  O12  1  0.60873100  0.59815700  0.27079400  1
  O  O13  1  0.10873100  0.40184300  0.22920600  1
