# generated using pymatgen
data_NbOF3
_symmetry_space_group_name_H-M   'P 1'
_cell_length_a   6.69776200
_cell_length_b   7.81210899
_cell_length_c   8.75317425
_cell_angle_alpha   98.79964476
_cell_angle_beta   111.08720460
_cell_angle_gamma   108.58937636
_symmetry_Int_Tables_number   1
_chemical_formula_structural   NbOF3
_chemical_formula_sum   'Nb4 O4 F12'
_cell_volume   386.03406806
_cell_formula_units_Z   4
loop_
 _symmetry_equiv_pos_site_id
 _symmetry_equiv_pos_as_xyz
  1  'x, y, z'
loop_
 _atom_site_type_symbol
 _atom_site_label
 _atom_site_symmetry_multiplicity
 _atom_site_fract_x
 _atom_site_fract_y
 _atom_site_fract_z
 _atom_site_occupancy
  Nb  Nb0  1  0.51420400  0.53991100  0.20943500  1
  Nb  Nb1  1  0.33882400  0.10490800  0.36929900  1
  Nb  Nb2  1  0.66117600  0.89509200  0.63070100  1
  Nb  Nb3  1  0.48579600  0.46008900  0.79056500  1
  O  O4  1  0.58438200  0.73408800  0.39107000  1
  O  O5  1  0.43154700  0.31375300  0.30030000  1
  O  O6  1  0.56845300  0.68624700  0.69970000  1
  O  O7  1  0.41561800  0.26591200  0.60893000  1
  F  F8  1  0.56128100  0.67705000  0.04098400  1
  F  F9  1  0.28278700  0.91506800  0.17729100  1
  F  F10  1  0.18445100  0.45701300  0.08992100  1
  F  F11  1  0.81301700  0.52926800  0.27167800  1
  F  F12  1  0.98241800  0.95298900  0.69310200  1
  F  F13  1  0.67236500  0.11190700  0.49442000  1
  F  F14  1  0.32763500  0.88809300  0.50558000  1
  F  F15  1  0.01758200  0.04701100  0.30689800  1
  F  F16  1  0.18698300  0.47073200  0.72832200  1
  F  F17  1  0.81554900  0.54298700  0.91007900  1
  F  F18  1  0.71721300  0.08493200  0.82270900  1
  F  F19  1  0.43871900  0.32295000  0.95901600  1
