# generated using pymatgen
data_BaCaI4
_symmetry_space_group_name_H-M   'P 1'
_cell_length_a   8.34050100
_cell_length_b   8.03718300
_cell_length_c   8.32703207
_cell_angle_alpha   79.11577832
_cell_angle_beta   90.00000000
_cell_angle_gamma   90.00000000
_symmetry_Int_Tables_number   1
_chemical_formula_structural   BaCaI4
_chemical_formula_sum   'Ba2 Ca2 I8'
_cell_volume   548.15385732
_cell_formula_units_Z   2
loop_
 _symmetry_equiv_pos_site_id
 _symmetry_equiv_pos_as_xyz
  1  'x, y, z'
loop_
 _atom_site_type_symbol
 _atom_site_label
 _atom_site_symmetry_multiplicity
 _atom_site_fract_x
 _atom_site_fract_y
 _atom_site_fract_z
 _atom_site_occupancy
  Ba  Ba0  1  0.27180300  0.50000000  0.75000000  1
  Ba  Ba1  1  0.72819700  0.50000000  0.25000000  1
  Ca  Ca2  1  0.82956800  0.00000000  0.75000000  1
  Ca  Ca3  1  0.17043200  0.00000000  0.25000000  1
  I  I4  1  0.56050000  0.75685000  0.90730800  1
  I  I5  1  0.94300400  0.75263600  0.51108800  1
  I  I6  1  0.43950000  0.75685000  0.40730800  1
  I  I7  1  0.05699600  0.75263600  0.01108800  1
  I  I8  1  0.94300400  0.24736400  0.98891200  1
  I  I9  1  0.56050000  0.24315000  0.59269200  1
  I  I10  1  0.05699600  0.24736400  0.48891200  1
  I  I11  1  0.43950000  0.24315000  0.09269200  1
