# generated using pymatgen
data_BSbO3
_symmetry_space_group_name_H-M   'P 1'
_cell_length_a   4.84604000
_cell_length_b   6.04718949
_cell_length_c   6.22088714
_cell_angle_alpha   80.97470390
_cell_angle_beta   68.56260547
_cell_angle_gamma   66.60665407
_symmetry_Int_Tables_number   1
_chemical_formula_structural   BSbO3
_chemical_formula_sum   'B2 Sb2 O6'
_cell_volume   155.72727706
_cell_formula_units_Z   2
loop_
 _symmetry_equiv_pos_site_id
 _symmetry_equiv_pos_as_xyz
  1  'x, y, z'
loop_
 _atom_site_type_symbol
 _atom_site_label
 _atom_site_symmetry_multiplicity
 _atom_site_fract_x
 _atom_site_fract_y
 _atom_site_fract_z
 _atom_site_occupancy
  B  B0  1  0.27063900  0.93642500  0.70774300  1
  B  B1  1  0.72936100  0.06357500  0.29225700  1
  Sb  Sb2  1  0.54938700  0.25534500  0.76589500  1
  Sb  Sb3  1  0.45061300  0.74465500  0.23410500  1
  O  O4  1  0.31654700  0.74882800  0.58244400  1
  O  O5  1  0.51959500  0.92524300  0.77852700  1
  O  O6  1  0.99746400  0.14120500  0.76785200  1
  O  O7  1  0.00253600  0.85879500  0.23214800  1
  O  O8  1  0.48040500  0.07475700  0.22147300  1
  O  O9  1  0.68345300  0.25117200  0.41755600  1
