# generated using pymatgen
data_GdAsO4
_symmetry_space_group_name_H-M   'P 1'
_cell_length_a   5.58658700
_cell_length_b   5.58658700
_cell_length_c   4.76554200
_cell_angle_alpha   90.00000000
_cell_angle_beta   90.00000000
_cell_angle_gamma   90.00000000
_symmetry_Int_Tables_number   1
_chemical_formula_structural   GdAsO4
_chemical_formula_sum   'Gd2 As2 O8'
_cell_volume   148.73234808
_cell_formula_units_Z   2
loop_
 _symmetry_equiv_pos_site_id
 _symmetry_equiv_pos_as_xyz
  1  'x, y, z'
loop_
 _atom_site_type_symbol
 _atom_site_label
 _atom_site_symmetry_multiplicity
 _atom_site_fract_x
 _atom_site_fract_y
 _atom_site_fract_z
 _atom_site_occupancy
  Gd  Gd0  1  0.50000000  0.50000000  0.50000000  1
  Gd  Gd1  1  0.00000000  0.00000000  0.50000000  1
  As  As2  1  0.00000000  0.50000000  0.00000000  1
  As  As3  1  0.50000000  0.00000000  0.00000000  1
  O  O4  1  0.16843900  0.33156100  0.76288700  1
  O  O5  1  0.83156100  0.33156100  0.23711300  1
  O  O6  1  0.83156100  0.66843900  0.76288700  1
  O  O7  1  0.33156100  0.83156100  0.76288700  1
  O  O8  1  0.16843900  0.66843900  0.23711300  1
  O  O9  1  0.66843900  0.83156100  0.23711300  1
  O  O10  1  0.66843900  0.16843900  0.76288700  1
  O  O11  1  0.33156100  0.16843900  0.23711300  1
