# generated using pymatgen
data_GdAsO4
_symmetry_space_group_name_H-M   'P 1'
_cell_length_a   7.07727600
_cell_length_b   6.70887200
_cell_length_c   8.24131622
_cell_angle_alpha   53.74643772
_cell_angle_beta   90.00000000
_cell_angle_gamma   90.00000000
_symmetry_Int_Tables_number   1
_chemical_formula_structural   GdAsO4
_chemical_formula_sum   'Gd4 As4 O16'
_cell_volume   315.54910850
_cell_formula_units_Z   4
loop_
 _symmetry_equiv_pos_site_id
 _symmetry_equiv_pos_as_xyz
  1  'x, y, z'
loop_
 _atom_site_type_symbol
 _atom_site_label
 _atom_site_symmetry_multiplicity
 _atom_site_fract_x
 _atom_site_fract_y
 _atom_site_fract_z
 _atom_site_occupancy
  Gd  Gd0  1  0.85283000  0.80988300  0.78171500  1
  Gd  Gd1  1  0.35283000  0.19011700  0.71828500  1
  Gd  Gd2  1  0.64717000  0.80988300  0.28171500  1
  Gd  Gd3  1  0.14717000  0.19011700  0.21828500  1
  As  As4  1  0.83870400  0.31099500  0.80114800  1
  As  As5  1  0.33870400  0.68900500  0.69885200  1
  As  As6  1  0.66129600  0.31099500  0.30114800  1
  As  As7  1  0.16129600  0.68900500  0.19885200  1
  O  O8  1  0.89471700  0.35551400  0.98177800  1
  O  O9  1  0.65249900  0.10740700  0.89536300  1
  O  O10  1  0.28745500  0.38498700  0.88776100  1
  O  O11  1  0.50633700  0.83392000  0.74594000  1
  O  O12  1  0.78745500  0.61501300  0.61223900  1
  O  O13  1  0.00633700  0.16608000  0.75406000  1
  O  O14  1  0.15249900  0.89259300  0.60463700  1
  O  O15  1  0.39471700  0.64448600  0.51822200  1
  O  O16  1  0.60528300  0.35551400  0.48177800  1
  O  O17  1  0.84750100  0.10740700  0.39536300  1
  O  O18  1  0.99366300  0.83392000  0.24594000  1
  O  O19  1  0.21254500  0.38498700  0.38776100  1
  O  O20  1  0.49366300  0.16608000  0.25406000  1
  O  O21  1  0.71254500  0.61501300  0.11223900  1
  O  O22  1  0.34750100  0.89259300  0.10463700  1
  O  O23  1  0.10528300  0.64448600  0.01822200  1
