# generated using pymatgen
data_YHO2
_symmetry_space_group_name_H-M   'P 1'
_cell_length_a   3.51714400
_cell_length_b   4.86454300
_cell_length_c   5.50978900
_cell_angle_alpha   90.00000000
_cell_angle_beta   90.00000000
_cell_angle_gamma   90.00000000
_symmetry_Int_Tables_number   1
_chemical_formula_structural   YHO2
_chemical_formula_sum   'Y2 H2 O4'
_cell_volume   94.26862316
_cell_formula_units_Z   2
loop_
 _symmetry_equiv_pos_site_id
 _symmetry_equiv_pos_as_xyz
  1  'x, y, z'
loop_
 _atom_site_type_symbol
 _atom_site_label
 _atom_site_symmetry_multiplicity
 _atom_site_fract_x
 _atom_site_fract_y
 _atom_site_fract_z
 _atom_site_occupancy
  Y  Y0  1  0.00000000  0.72346600  0.98303100  1
  Y  Y1  1  0.50000000  0.27653400  0.48303100  1
  H  H2  1  0.50000000  0.19527300  0.96321200  1
  H  H3  1  0.00000000  0.80472700  0.46321200  1
  O  O4  1  0.50000000  0.02298100  0.85740600  1
  O  O5  1  0.00000000  0.52042000  0.61912800  1
  O  O6  1  0.00000000  0.97701900  0.35740600  1
  O  O7  1  0.50000000  0.47958000  0.11912800  1
