# generated using pymatgen
data_Li2ZrCuO4
_symmetry_space_group_name_H-M   'P 1'
_cell_length_a   5.40560858
_cell_length_b   5.40560858
_cell_length_c   5.40560858
_cell_angle_alpha   133.92992498
_cell_angle_beta   133.92992498
_cell_angle_gamma   67.19747950
_symmetry_Int_Tables_number   1
_chemical_formula_structural   Li2ZrCuO4
_chemical_formula_sum   'Li2 Zr1 Cu1 O4'
_cell_volume   80.57686278
_cell_formula_units_Z   1
loop_
 _symmetry_equiv_pos_site_id
 _symmetry_equiv_pos_as_xyz
  1  'x, y, z'
loop_
 _atom_site_type_symbol
 _atom_site_label
 _atom_site_symmetry_multiplicity
 _atom_site_fract_x
 _atom_site_fract_y
 _atom_site_fract_z
 _atom_site_occupancy
  Li  Li0  1  0.50000000  0.50000000  0.00000000  1
  Li  Li1  1  0.25000000  0.75000000  0.50000000  1
  Zr  Zr2  1  0.75000000  0.25000000  0.50000000  1
  Cu  Cu3  1  0.00000000  0.00000000  0.00000000  1
  O  O4  1  0.98711900  0.48711900  0.50000000  1
  O  O5  1  0.25298700  0.25298700  0.00000000  1
  O  O6  1  0.51288100  0.01288100  0.50000000  1
  O  O7  1  0.74701300  0.74701300  0.00000000  1
