# generated using pymatgen
data_ScTlO2
_symmetry_space_group_name_H-M   'P 1'
_cell_length_a   3.26474293
_cell_length_b   3.26474293
_cell_length_c   12.96808500
_cell_angle_alpha   90.00000000
_cell_angle_beta   90.00000000
_cell_angle_gamma   119.99997822
_symmetry_Int_Tables_number   1
_chemical_formula_structural   ScTlO2
_chemical_formula_sum   'Sc2 Tl2 O4'
_cell_volume   119.70286756
_cell_formula_units_Z   2
loop_
 _symmetry_equiv_pos_site_id
 _symmetry_equiv_pos_as_xyz
  1  'x, y, z'
loop_
 _atom_site_type_symbol
 _atom_site_label
 _atom_site_symmetry_multiplicity
 _atom_site_fract_x
 _atom_site_fract_y
 _atom_site_fract_z
 _atom_site_occupancy
  Sc  Sc0  1  0.00000000  0.00000000  0.00000000  1
  Sc  Sc1  1  0.00000000  0.00000000  0.50000000  1
  Tl  Tl2  1  0.66666700  0.33333300  0.75000000  1
  Tl  Tl3  1  0.33333300  0.66666700  0.25000000  1
  O  O4  1  0.66666700  0.33333300  0.08177000  1
  O  O5  1  0.66666700  0.33333300  0.41823000  1
  O  O6  1  0.33333300  0.66666700  0.58177000  1
  O  O7  1  0.33333300  0.66666700  0.91823000  1
