# generated using pymatgen
data_HoBO3
_symmetry_space_group_name_H-M   'P 1'
_cell_length_a   6.27271891
_cell_length_b   6.27271891
_cell_length_c   6.27271915
_cell_angle_alpha   46.82821797
_cell_angle_beta   46.82821797
_cell_angle_gamma   46.82822566
_symmetry_Int_Tables_number   1
_chemical_formula_structural   HoBO3
_chemical_formula_sum   'Ho2 B2 O6'
_cell_volume   119.95586286
_cell_formula_units_Z   2
loop_
 _symmetry_equiv_pos_site_id
 _symmetry_equiv_pos_as_xyz
  1  'x, y, z'
loop_
 _atom_site_type_symbol
 _atom_site_label
 _atom_site_symmetry_multiplicity
 _atom_site_fract_x
 _atom_site_fract_y
 _atom_site_fract_z
 _atom_site_occupancy
  Ho  Ho0  1  0.50000000  0.50000000  0.50000000  1
  Ho  Ho1  1  0.00000000  0.00000000  0.00000000  1
  B  B2  1  0.75000000  0.75000000  0.75000000  1
  B  B3  1  0.25000000  0.25000000  0.25000000  1
  O  O4  1  0.47163200  0.75000000  0.02836800  1
  O  O5  1  0.97163200  0.52836800  0.25000000  1
  O  O6  1  0.25000000  0.97163200  0.52836800  1
  O  O7  1  0.75000000  0.02836800  0.47163200  1
  O  O8  1  0.02836800  0.47163200  0.75000000  1
  O  O9  1  0.52836800  0.25000000  0.97163200  1
