# generated using pymatgen
data_Er2TeO2
_symmetry_space_group_name_H-M   'P 1'
_cell_length_a   3.88621259
_cell_length_b   3.88621259
_cell_length_c   14.35264900
_cell_angle_alpha   90.00000000
_cell_angle_beta   90.00000000
_cell_angle_gamma   120.00001008
_symmetry_Int_Tables_number   1
_chemical_formula_structural   Er2TeO2
_chemical_formula_sum   'Er4 Te2 O4'
_cell_volume   187.72225434
_cell_formula_units_Z   2
loop_
 _symmetry_equiv_pos_site_id
 _symmetry_equiv_pos_as_xyz
  1  'x, y, z'
loop_
 _atom_site_type_symbol
 _atom_site_label
 _atom_site_symmetry_multiplicity
 _atom_site_fract_x
 _atom_site_fract_y
 _atom_site_fract_z
 _atom_site_occupancy
  Er  Er0  1  0.33333300  0.66666700  0.40285200  1
  Er  Er1  1  0.33333300  0.66666700  0.09714800  1
  Er  Er2  1  0.66666700  0.33333300  0.90285200  1
  Er  Er3  1  0.66666700  0.33333300  0.59714800  1
  Te  Te4  1  0.00000000  0.00000000  0.75000000  1
  Te  Te5  1  0.00000000  0.00000000  0.25000000  1
  O  O6  1  0.33333300  0.66666700  0.56000000  1
  O  O7  1  0.33333300  0.66666700  0.94000000  1
  O  O8  1  0.66666700  0.33333300  0.44000000  1
  O  O9  1  0.66666700  0.33333300  0.06000000  1
