# generated using pymatgen
data_NaCuO2
_symmetry_space_group_name_H-M   'P 1'
_cell_length_a   5.52013400
_cell_length_b   5.56297219
_cell_length_c   7.15521914
_cell_angle_alpha   99.11235679
_cell_angle_beta   88.08035912
_cell_angle_gamma   104.58758160
_symmetry_Int_Tables_number   1
_chemical_formula_structural   NaCuO2
_chemical_formula_sum   'Na4 Cu4 O8'
_cell_volume   209.95358095
_cell_formula_units_Z   4
loop_
 _symmetry_equiv_pos_site_id
 _symmetry_equiv_pos_as_xyz
  1  'x, y, z'
loop_
 _atom_site_type_symbol
 _atom_site_label
 _atom_site_symmetry_multiplicity
 _atom_site_fract_x
 _atom_site_fract_y
 _atom_site_fract_z
 _atom_site_occupancy
  Na  Na0  1  0.00000000  0.50000000  0.50000000  1
  Na  Na1  1  0.22721900  0.39683200  0.06611100  1
  Na  Na2  1  0.50000000  0.50000000  0.50000000  1
  Na  Na3  1  0.77278100  0.60316800  0.93388900  1
  Cu  Cu4  1  0.38407300  0.95053600  0.27558600  1
  Cu  Cu5  1  0.88234800  0.94945800  0.28261400  1
  Cu  Cu6  1  0.11765200  0.05054200  0.71738600  1
  Cu  Cu7  1  0.61592700  0.04946400  0.72441400  1
  O  O8  1  0.07638300  0.72140600  0.22076000  1
  O  O9  1  0.31101800  0.82227500  0.66887400  1
  O  O10  1  0.57695500  0.71866700  0.22373600  1
  O  O11  1  0.81088500  0.81808900  0.67608800  1
  O  O12  1  0.18911500  0.18191100  0.32391200  1
  O  O13  1  0.42304500  0.28133300  0.77626400  1
  O  O14  1  0.68898200  0.17772500  0.33112600  1
  O  O15  1  0.92361700  0.27859400  0.77924000  1
