# generated using pymatgen
data_LuNbO4
_symmetry_space_group_name_H-M   'P 1'
_cell_length_a   5.45244800
_cell_length_b   5.08400300
_cell_length_c   5.26268097
_cell_angle_alpha   84.84974333
_cell_angle_beta   90.00000000
_cell_angle_gamma   90.00000000
_symmetry_Int_Tables_number   1
_chemical_formula_structural   LuNbO4
_chemical_formula_sum   'Lu2 Nb2 O8'
_cell_volume   145.29392368
_cell_formula_units_Z   2
loop_
 _symmetry_equiv_pos_site_id
 _symmetry_equiv_pos_as_xyz
  1  'x, y, z'
loop_
 _atom_site_type_symbol
 _atom_site_label
 _atom_site_symmetry_multiplicity
 _atom_site_fract_x
 _atom_site_fract_y
 _atom_site_fract_z
 _atom_site_occupancy
  Lu  Lu0  1  0.23532200  0.50000000  0.75000000  1
  Lu  Lu1  1  0.76467800  0.50000000  0.25000000  1
  Nb  Nb2  1  0.70496100  0.00000000  0.75000000  1
  Nb  Nb3  1  0.29503900  0.00000000  0.25000000  1
  O  O4  1  0.43526800  0.76146400  0.00697400  1
  O  O5  1  0.92173100  0.74640000  0.91150600  1
  O  O6  1  0.92173100  0.25360000  0.58849400  1
  O  O7  1  0.43526800  0.23853600  0.49302600  1
  O  O8  1  0.56473200  0.76146400  0.50697400  1
  O  O9  1  0.07826900  0.74640000  0.41150600  1
  O  O10  1  0.07826900  0.25360000  0.08849400  1
  O  O11  1  0.56473200  0.23853600  0.99302600  1
