# generated using pymatgen
data_Na2Be2O3
_symmetry_space_group_name_H-M   'P 1'
_cell_length_a   5.31240800
_cell_length_b   4.94313900
_cell_length_c   5.36061396
_cell_angle_alpha   66.92409557
_cell_angle_beta   90.00000000
_cell_angle_gamma   90.00000000
_symmetry_Int_Tables_number   1
_chemical_formula_structural   Na2Be2O3
_chemical_formula_sum   'Na4 Be4 O6'
_cell_volume   129.50608973
_cell_formula_units_Z   2
loop_
 _symmetry_equiv_pos_site_id
 _symmetry_equiv_pos_as_xyz
  1  'x, y, z'
loop_
 _atom_site_type_symbol
 _atom_site_label
 _atom_site_symmetry_multiplicity
 _atom_site_fract_x
 _atom_site_fract_y
 _atom_site_fract_z
 _atom_site_occupancy
  Na  Na0  1  0.37153600  0.81029200  0.92800800  1
  Na  Na1  1  0.12846400  0.81029200  0.42800800  1
  Na  Na2  1  0.87153600  0.18970800  0.57199200  1
  Na  Na3  1  0.62846400  0.18970800  0.07199200  1
  Be  Be4  1  0.60334400  0.67103300  0.56891700  1
  Be  Be5  1  0.10334400  0.32896700  0.93108300  1
  Be  Be6  1  0.89665600  0.67103300  0.06891700  1
  Be  Be7  1  0.39665600  0.32896700  0.43108300  1
  O  O8  1  0.50000000  0.00000000  0.50000000  1
  O  O9  1  0.00000000  0.00000000  0.00000000  1
  O  O10  1  0.85436800  0.58992400  0.79146800  1
  O  O11  1  0.35436800  0.41007600  0.70853200  1
  O  O12  1  0.64563200  0.58992400  0.29146800  1
  O  O13  1  0.14563200  0.41007600  0.20853200  1
