# generated using pymatgen
data_Sr2HfO4
_symmetry_space_group_name_H-M   'P 1'
_cell_length_a   5.83787700
_cell_length_b   5.83787700
_cell_length_c   12.67471800
_cell_angle_alpha   90.00000000
_cell_angle_beta   90.00000000
_cell_angle_gamma   90.00000000
_symmetry_Int_Tables_number   1
_chemical_formula_structural   Sr2HfO4
_chemical_formula_sum   'Sr8 Hf4 O16'
_cell_volume   431.96462893
_cell_formula_units_Z   4
loop_
 _symmetry_equiv_pos_site_id
 _symmetry_equiv_pos_as_xyz
  1  'x, y, z'
loop_
 _atom_site_type_symbol
 _atom_site_label
 _atom_site_symmetry_multiplicity
 _atom_site_fract_x
 _atom_site_fract_y
 _atom_site_fract_z
 _atom_site_occupancy
  Sr  Sr0  1  0.26355200  0.76355200  0.10170800  1
  Sr  Sr1  1  0.26355200  0.23644800  0.60170800  1
  Sr  Sr2  1  0.73644800  0.76355200  0.60170800  1
  Sr  Sr3  1  0.73644800  0.23644800  0.10170800  1
  Sr  Sr4  1  0.76355200  0.26355200  0.39829200  1
  Sr  Sr5  1  0.76355200  0.73644800  0.89829200  1
  Sr  Sr6  1  0.23644800  0.26355200  0.89829200  1
  Sr  Sr7  1  0.23644800  0.73644800  0.39829200  1
  Hf  Hf8  1  0.25000000  0.75000000  0.75000000  1
  Hf  Hf9  1  0.25000000  0.25000000  0.25000000  1
  Hf  Hf10  1  0.75000000  0.25000000  0.75000000  1
  Hf  Hf11  1  0.75000000  0.75000000  0.25000000  1
  O  O12  1  0.28731800  0.21268200  0.08682900  1
  O  O13  1  0.28731800  0.78731800  0.58682900  1
  O  O14  1  0.50000000  0.00000000  0.77121700  1
  O  O15  1  0.50000000  0.00000000  0.27121700  1
  O  O16  1  0.50000000  0.50000000  0.75000000  1
  O  O17  1  0.50000000  0.50000000  0.25000000  1
  O  O18  1  0.71268200  0.21268200  0.58682900  1
  O  O19  1  0.71268200  0.78731800  0.08682900  1
  O  O20  1  0.78731800  0.28731800  0.91317100  1
  O  O21  1  0.78731800  0.71268200  0.41317100  1
  O  O22  1  0.00000000  0.00000000  0.25000000  1
  O  O23  1  0.00000000  0.50000000  0.22878300  1
  O  O24  1  0.00000000  0.00000000  0.75000000  1
  O  O25  1  0.00000000  0.50000000  0.72878300  1
  O  O26  1  0.21268200  0.71268200  0.91317100  1
  O  O27  1  0.21268200  0.28731800  0.41317100  1
