# generated using pymatgen
data_La2S2O
_symmetry_space_group_name_H-M   'P 1'
_cell_length_a   4.06835800
_cell_length_b   7.14076300
_cell_length_c   16.18558300
_cell_angle_alpha   90.00000000
_cell_angle_beta   90.00000000
_cell_angle_gamma   90.00000000
_symmetry_Int_Tables_number   1
_chemical_formula_structural   La2S2O
_chemical_formula_sum   'La8 S8 O4'
_cell_volume   470.21028962
_cell_formula_units_Z   4
loop_
 _symmetry_equiv_pos_site_id
 _symmetry_equiv_pos_as_xyz
  1  'x, y, z'
loop_
 _atom_site_type_symbol
 _atom_site_label
 _atom_site_symmetry_multiplicity
 _atom_site_fract_x
 _atom_site_fract_y
 _atom_site_fract_z
 _atom_site_occupancy
  La  La0  1  0.75000000  0.20750100  0.04098500  1
  La  La1  1  0.75000000  0.75610200  0.16870100  1
  La  La2  1  0.25000000  0.25610200  0.33129900  1
  La  La3  1  0.25000000  0.70750100  0.45901500  1
  La  La4  1  0.75000000  0.29249900  0.54098500  1
  La  La5  1  0.75000000  0.74389800  0.66870100  1
  La  La6  1  0.25000000  0.24389800  0.83129900  1
  La  La7  1  0.25000000  0.79249900  0.95901500  1
  S  S8  1  0.25000000  0.51423700  0.10249900  1
  S  S9  1  0.25000000  0.04261700  0.17691600  1
  S  S10  1  0.75000000  0.54261700  0.32308400  1
  S  S11  1  0.75000000  0.01423700  0.39750100  1
  S  S12  1  0.25000000  0.98576300  0.60249900  1
  S  S13  1  0.25000000  0.45738300  0.67691600  1
  S  S14  1  0.75000000  0.95738300  0.82308400  1
  S  S15  1  0.75000000  0.48576300  0.89750100  1
  O  O16  1  0.75000000  0.86727600  0.03180100  1
  O  O17  1  0.25000000  0.36727600  0.46819900  1
  O  O18  1  0.75000000  0.63272400  0.53180100  1
  O  O19  1  0.25000000  0.13272400  0.96819900  1
