# generated using pymatgen
data_Sr(IO3)2
_symmetry_space_group_name_H-M   'P 1'
_cell_length_a   5.44760800
_cell_length_b   6.19671100
_cell_length_c   10.60791350
_cell_angle_alpha   89.43733944
_cell_angle_beta   90.00000000
_cell_angle_gamma   90.00000000
_symmetry_Int_Tables_number   1
_chemical_formula_structural   Sr(IO3)2
_chemical_formula_sum   'Sr2 I4 O12'
_cell_volume   358.07674681
_cell_formula_units_Z   2
loop_
 _symmetry_equiv_pos_site_id
 _symmetry_equiv_pos_as_xyz
  1  'x, y, z'
loop_
 _atom_site_type_symbol
 _atom_site_label
 _atom_site_symmetry_multiplicity
 _atom_site_fract_x
 _atom_site_fract_y
 _atom_site_fract_z
 _atom_site_occupancy
  Sr  Sr0  1  0.59672700  0.77559600  0.74209600  1
  Sr  Sr1  1  0.09672700  0.22440400  0.25790400  1
  I  I2  1  0.49446900  0.72476600  0.39531800  1
  I  I3  1  0.98639600  0.72992100  0.07273000  1
  I  I4  1  0.48639600  0.27007900  0.92727000  1
  I  I5  1  0.99446900  0.27523400  0.60468200  1
  O  O6  1  0.83820800  0.98499700  0.11437600  1
  O  O7  1  0.31178400  0.86732700  0.27598500  1
  O  O8  1  0.38353200  0.85268200  0.53895900  1
  O  O9  1  0.80602100  0.64639900  0.93601100  1
  O  O10  1  0.83860000  0.53605600  0.59565600  1
  O  O11  1  0.35351500  0.44810600  0.80665300  1
  O  O12  1  0.85351500  0.55189400  0.19334700  1
  O  O13  1  0.33860000  0.46394400  0.40434400  1
  O  O14  1  0.30602100  0.35360100  0.06398900  1
  O  O15  1  0.88353200  0.14731800  0.46104100  1
  O  O16  1  0.81178400  0.13267300  0.72401500  1
  O  O17  1  0.33820800  0.01500300  0.88562400  1
