# generated using pymatgen
data_SrCaI4
_symmetry_space_group_name_H-M   'P 1'
_cell_length_a   7.71386200
_cell_length_b   9.53986800
_cell_length_c   18.10111022
_cell_angle_alpha   59.98125216
_cell_angle_beta   90.00000000
_cell_angle_gamma   90.00000000
_symmetry_Int_Tables_number   1
_chemical_formula_structural   SrCaI4
_chemical_formula_sum   'Sr4 Ca4 I16'
_cell_volume   1153.36826911
_cell_formula_units_Z   4
loop_
 _symmetry_equiv_pos_site_id
 _symmetry_equiv_pos_as_xyz
  1  'x, y, z'
loop_
 _atom_site_type_symbol
 _atom_site_label
 _atom_site_symmetry_multiplicity
 _atom_site_fract_x
 _atom_site_fract_y
 _atom_site_fract_z
 _atom_site_occupancy
  Sr  Sr0  1  0.39246300  0.75126500  0.62922600  1
  Sr  Sr1  1  0.10753700  0.75126500  0.12922600  1
  Sr  Sr2  1  0.89246300  0.24873500  0.87077400  1
  Sr  Sr3  1  0.60753700  0.24873500  0.37077400  1
  Ca  Ca4  1  0.07530800  0.75516500  0.87061200  1
  Ca  Ca5  1  0.42469200  0.75516500  0.37061200  1
  Ca  Ca6  1  0.57530800  0.24483500  0.62938800  1
  Ca  Ca7  1  0.92469200  0.24483500  0.12938800  1
  I  I8  1  0.24086200  0.01014300  0.68654700  1
  I  I9  1  0.25913800  0.01014300  0.18654700  1
  I  I10  1  0.72685900  0.00120000  0.57158600  1
  I  I11  1  0.77314100  0.00120000  0.07158600  1
  I  I12  1  0.22574300  0.50758500  0.81797600  1
  I  I13  1  0.26819400  0.50904200  0.55576000  1
  I  I14  1  0.27425700  0.50758500  0.31797600  1
  I  I15  1  0.76819400  0.49095800  0.94424000  1
  I  I16  1  0.23180600  0.50904200  0.05576000  1
  I  I17  1  0.72574300  0.49241500  0.68202400  1
  I  I18  1  0.73180600  0.49095800  0.44424000  1
  I  I19  1  0.77425700  0.49241500  0.18202400  1
  I  I20  1  0.22685900  0.99880000  0.92841400  1
  I  I21  1  0.27314100  0.99880000  0.42841400  1
  I  I22  1  0.74086200  0.98985700  0.81345300  1
  I  I23  1  0.75913800  0.98985700  0.31345300  1
