# generated using pymatgen
data_La2MgO4
_symmetry_space_group_name_H-M   'P 1'
_cell_length_a   6.83200331
_cell_length_b   6.83200331
_cell_length_c   5.67019600
_cell_angle_alpha   90.00000000
_cell_angle_beta   90.00000000
_cell_angle_gamma   131.87345129
_symmetry_Int_Tables_number   1
_chemical_formula_structural   La2MgO4
_chemical_formula_sum   'La4 Mg2 O8'
_cell_volume   197.07404828
_cell_formula_units_Z   2
loop_
 _symmetry_equiv_pos_site_id
 _symmetry_equiv_pos_as_xyz
  1  'x, y, z'
loop_
 _atom_site_type_symbol
 _atom_site_label
 _atom_site_symmetry_multiplicity
 _atom_site_fract_x
 _atom_site_fract_y
 _atom_site_fract_z
 _atom_site_occupancy
  La  La0  1  0.13767700  0.86232300  0.48703700  1
  La  La1  1  0.36232300  0.63767700  0.98703700  1
  La  La2  1  0.63767700  0.36232300  0.01296300  1
  La  La3  1  0.86232300  0.13767700  0.51296300  1
  Mg  Mg4  1  0.50000000  0.50000000  0.50000000  1
  Mg  Mg5  1  0.00000000  0.00000000  0.00000000  1
  O  O6  1  0.73502600  0.76497400  0.25000000  1
  O  O7  1  0.17903400  0.82096600  0.06330400  1
  O  O8  1  0.32096600  0.67903400  0.56330400  1
  O  O9  1  0.23502600  0.26497400  0.25000000  1
  O  O10  1  0.76497400  0.73502600  0.75000000  1
  O  O11  1  0.82096600  0.17903400  0.93669600  1
  O  O12  1  0.67903400  0.32096600  0.43669600  1
  O  O13  1  0.26497400  0.23502600  0.75000000  1
