# generated using pymatgen
data_Al2O3
_symmetry_space_group_name_H-M   'P 1'
_cell_length_a   4.84648960
_cell_length_b   4.84648960
_cell_length_c   9.08588700
_cell_angle_alpha   90.00000000
_cell_angle_beta   90.00000000
_cell_angle_gamma   119.99999457
_symmetry_Int_Tables_number   1
_chemical_formula_structural   Al2O3
_chemical_formula_sum   'Al8 O12'
_cell_volume   184.82152841
_cell_formula_units_Z   4
loop_
 _symmetry_equiv_pos_site_id
 _symmetry_equiv_pos_as_xyz
  1  'x, y, z'
loop_
 _atom_site_type_symbol
 _atom_site_label
 _atom_site_symmetry_multiplicity
 _atom_site_fract_x
 _atom_site_fract_y
 _atom_site_fract_z
 _atom_site_occupancy
  Al  Al0  1  0.33333300  0.66666700  0.96284600  1
  Al  Al1  1  0.33333300  0.66666700  0.25000000  1
  Al  Al2  1  0.00000000  0.00000000  0.00000000  1
  Al  Al3  1  0.00000000  0.00000000  0.50000000  1
  Al  Al4  1  0.33333300  0.66666700  0.53715400  1
  Al  Al5  1  0.66666700  0.33333300  0.03715400  1
  Al  Al6  1  0.66666700  0.33333300  0.75000000  1
  Al  Al7  1  0.66666700  0.33333300  0.46284600  1
  O  O8  1  0.03182700  0.67660300  0.11190500  1
  O  O9  1  0.96817300  0.64477600  0.61190500  1
  O  O10  1  0.03182700  0.35522400  0.38809500  1
  O  O11  1  0.96817300  0.32339700  0.88809500  1
  O  O12  1  0.32339700  0.35522400  0.11190500  1
  O  O13  1  0.35522400  0.32339700  0.61190500  1
  O  O14  1  0.32339700  0.96817300  0.38809500  1
  O  O15  1  0.35522400  0.03182700  0.88809500  1
  O  O16  1  0.64477600  0.67660300  0.38809500  1
  O  O17  1  0.67660300  0.64477600  0.88809500  1
  O  O18  1  0.64477600  0.96817300  0.11190500  1
  O  O19  1  0.67660300  0.03182700  0.61190500  1
