# generated using pymatgen
data_Sm2Se2O
_symmetry_space_group_name_H-M   'P 1'
_cell_length_a   4.02295500
_cell_length_b   7.17526800
_cell_length_c   16.45709100
_cell_angle_alpha   90.00000000
_cell_angle_beta   90.00000000
_cell_angle_gamma   90.00000000
_symmetry_Int_Tables_number   1
_chemical_formula_structural   Sm2Se2O
_chemical_formula_sum   'Sm8 Se8 O4'
_cell_volume   475.04677280
_cell_formula_units_Z   4
loop_
 _symmetry_equiv_pos_site_id
 _symmetry_equiv_pos_as_xyz
  1  'x, y, z'
loop_
 _atom_site_type_symbol
 _atom_site_label
 _atom_site_symmetry_multiplicity
 _atom_site_fract_x
 _atom_site_fract_y
 _atom_site_fract_z
 _atom_site_occupancy
  Sm  Sm0  1  0.25000000  0.69819200  0.03827100  1
  Sm  Sm1  1  0.25000000  0.25887700  0.16148900  1
  Sm  Sm2  1  0.75000000  0.75887700  0.33851100  1
  Sm  Sm3  1  0.75000000  0.19819200  0.46172900  1
  Sm  Sm4  1  0.25000000  0.80180800  0.53827100  1
  Sm  Sm5  1  0.25000000  0.24112300  0.66148900  1
  Sm  Sm6  1  0.75000000  0.74112300  0.83851100  1
  Sm  Sm7  1  0.75000000  0.30180800  0.96172900  1
  Se  Se8  1  0.75000000  0.00998200  0.09952200  1
  Se  Se9  1  0.75000000  0.55151900  0.17947800  1
  Se  Se10  1  0.25000000  0.05151900  0.32052200  1
  Se  Se11  1  0.25000000  0.50998200  0.40047800  1
  Se  Se12  1  0.75000000  0.49001800  0.59952200  1
  Se  Se13  1  0.75000000  0.94848100  0.67947800  1
  Se  Se14  1  0.25000000  0.44848100  0.82052200  1
  Se  Se15  1  0.25000000  0.99001800  0.90047800  1
  O  O16  1  0.25000000  0.37174900  0.03051900  1
  O  O17  1  0.75000000  0.87174900  0.46948100  1
  O  O18  1  0.25000000  0.12825100  0.53051900  1
  O  O19  1  0.75000000  0.62825100  0.96948100  1
