# generated using pymatgen
data_DyHO2
_symmetry_space_group_name_H-M   'P 1'
_cell_length_a   3.52983990
_cell_length_b   3.52983990
_cell_length_c   9.22438400
_cell_angle_alpha   90.00000000
_cell_angle_beta   90.00000000
_cell_angle_gamma   119.99999819
_symmetry_Int_Tables_number   1
_chemical_formula_structural   DyHO2
_chemical_formula_sum   'Dy2 H2 O4'
_cell_volume   99.53550635
_cell_formula_units_Z   2
loop_
 _symmetry_equiv_pos_site_id
 _symmetry_equiv_pos_as_xyz
  1  'x, y, z'
loop_
 _atom_site_type_symbol
 _atom_site_label
 _atom_site_symmetry_multiplicity
 _atom_site_fract_x
 _atom_site_fract_y
 _atom_site_fract_z
 _atom_site_occupancy
  Dy  Dy0  1  0.00000000  0.00000000  0.00000000  1
  Dy  Dy1  1  0.00000000  0.00000000  0.50000000  1
  H  H2  1  0.33333300  0.66666700  0.25000000  1
  H  H3  1  0.66666700  0.33333300  0.75000000  1
  O  O4  1  0.33333300  0.66666700  0.11709400  1
  O  O5  1  0.33333300  0.66666700  0.38290600  1
  O  O6  1  0.66666700  0.33333300  0.88290600  1
  O  O7  1  0.66666700  0.33333300  0.61709400  1
