# generated using pymatgen
data_Cd4B6O13
_symmetry_space_group_name_H-M   'P 1'
_cell_length_a   6.83438150
_cell_length_b   6.83438150
_cell_length_c   6.83438150
_cell_angle_alpha   109.47122063
_cell_angle_beta   109.47122063
_cell_angle_gamma   109.47122063
_symmetry_Int_Tables_number   1
_chemical_formula_structural   Cd4B6O13
_chemical_formula_sum   'Cd4 B6 O13'
_cell_volume   245.73994851
_cell_formula_units_Z   1
loop_
 _symmetry_equiv_pos_site_id
 _symmetry_equiv_pos_as_xyz
  1  'x, y, z'
loop_
 _atom_site_type_symbol
 _atom_site_label
 _atom_site_symmetry_multiplicity
 _atom_site_fract_x
 _atom_site_fract_y
 _atom_site_fract_z
 _atom_site_occupancy
  Cd  Cd0  1  0.68237300  0.00000000  0.00000000  1
  Cd  Cd1  1  0.31762700  0.31762700  0.31762700  1
  Cd  Cd2  1  0.00000000  0.68237300  0.00000000  1
  Cd  Cd3  1  0.00000000  0.00000000  0.68237300  1
  B  B4  1  0.75000000  0.50000000  0.25000000  1
  B  B5  1  0.75000000  0.25000000  0.50000000  1
  B  B6  1  0.50000000  0.25000000  0.75000000  1
  B  B7  1  0.50000000  0.75000000  0.25000000  1
  B  B8  1  0.25000000  0.75000000  0.50000000  1
  B  B9  1  0.25000000  0.50000000  0.75000000  1
  O  O10  1  0.70679200  0.00000000  0.41399600  1
  O  O11  1  0.70679200  0.41399600  0.00000000  1
  O  O12  1  0.70720400  0.29320800  0.29320800  1
  O  O13  1  0.00000000  0.00000000  0.00000000  1
  O  O14  1  0.41399600  0.70679200  0.00000000  1
  O  O15  1  0.41399600  0.00000000  0.70679200  1
  O  O16  1  0.58600400  0.29279600  0.58600400  1
  O  O17  1  0.58600400  0.58600400  0.29279600  1
  O  O18  1  0.29320800  0.29320800  0.70720400  1
  O  O19  1  0.29320800  0.70720400  0.29320800  1
  O  O20  1  0.29279600  0.58600400  0.58600400  1
  O  O21  1  0.00000000  0.70679200  0.41399600  1
  O  O22  1  0.00000000  0.41399600  0.70679200  1
