# generated using pymatgen
data_Sm2TeO6
_symmetry_space_group_name_H-M   'P 1'
_cell_length_a   5.08932000
_cell_length_b   5.08932000
_cell_length_c   10.32090800
_cell_angle_alpha   90.00000000
_cell_angle_beta   90.00000000
_cell_angle_gamma   90.00000000
_symmetry_Int_Tables_number   1
_chemical_formula_structural   Sm2TeO6
_chemical_formula_sum   'Sm4 Te2 O12'
_cell_volume   267.32367587
_cell_formula_units_Z   2
loop_
 _symmetry_equiv_pos_site_id
 _symmetry_equiv_pos_as_xyz
  1  'x, y, z'
loop_
 _atom_site_type_symbol
 _atom_site_label
 _atom_site_symmetry_multiplicity
 _atom_site_fract_x
 _atom_site_fract_y
 _atom_site_fract_z
 _atom_site_occupancy
  Sm  Sm0  1  0.50000000  0.50000000  0.33457300  1
  Sm  Sm1  1  0.50000000  0.50000000  0.66542700  1
  Sm  Sm2  1  0.00000000  0.00000000  0.16542700  1
  Sm  Sm3  1  0.00000000  0.00000000  0.83457300  1
  Te  Te4  1  0.50000000  0.50000000  0.00000000  1
  Te  Te5  1  0.00000000  0.00000000  0.50000000  1
  O  O6  1  0.68079600  0.68079600  0.14231500  1
  O  O7  1  0.68079600  0.68079600  0.85768500  1
  O  O8  1  0.72741800  0.72741800  0.50000000  1
  O  O9  1  0.77258200  0.22741800  0.00000000  1
  O  O10  1  0.81920400  0.18079600  0.35768500  1
  O  O11  1  0.81920400  0.18079600  0.64231500  1
  O  O12  1  0.18079600  0.81920400  0.35768500  1
  O  O13  1  0.18079600  0.81920400  0.64231500  1
  O  O14  1  0.22741800  0.77258200  0.00000000  1
  O  O15  1  0.27258200  0.27258200  0.50000000  1
  O  O16  1  0.31920400  0.31920400  0.14231500  1
  O  O17  1  0.31920400  0.31920400  0.85768500  1
