# generated using pymatgen
data_Ce2Dy2O7
_symmetry_space_group_name_H-M   'P 1'
_cell_length_a   3.84547200
_cell_length_b   3.84547200
_cell_length_c   10.87889700
_cell_angle_alpha   90.00000000
_cell_angle_beta   90.00000000
_cell_angle_gamma   90.00000000
_symmetry_Int_Tables_number   1
_chemical_formula_structural   Ce2Dy2O7
_chemical_formula_sum   'Ce2 Dy2 O7'
_cell_volume   160.87337456
_cell_formula_units_Z   1
loop_
 _symmetry_equiv_pos_site_id
 _symmetry_equiv_pos_as_xyz
  1  'x, y, z'
loop_
 _atom_site_type_symbol
 _atom_site_label
 _atom_site_symmetry_multiplicity
 _atom_site_fract_x
 _atom_site_fract_y
 _atom_site_fract_z
 _atom_site_occupancy
  Ce  Ce0  1  0.50000000  0.00000000  0.37416000  1
  Ce  Ce1  1  0.00000000  0.50000000  0.62584000  1
  Dy  Dy2  1  0.50000000  0.00000000  0.85989800  1
  Dy  Dy3  1  0.00000000  0.50000000  0.14010200  1
  O  O4  1  0.50000000  0.50000000  0.00000000  1
  O  O5  1  0.50000000  0.50000000  0.25905000  1
  O  O6  1  0.00000000  0.00000000  0.23357500  1
  O  O7  1  0.50000000  0.50000000  0.50000000  1
  O  O8  1  0.00000000  0.00000000  0.50000000  1
  O  O9  1  0.50000000  0.50000000  0.74095000  1
  O  O10  1  0.00000000  0.00000000  0.76642500  1
