# generated using pymatgen
data_Ca6HfO8
_symmetry_space_group_name_H-M   'P 1'
_cell_length_a   6.79079048
_cell_length_b   6.79079048
_cell_length_c   6.79079048
_cell_angle_alpha   60.00000000
_cell_angle_beta   60.00000000
_cell_angle_gamma   60.00000000
_symmetry_Int_Tables_number   1
_chemical_formula_structural   Ca6HfO8
_chemical_formula_sum   'Ca6 Hf1 O8'
_cell_volume   221.43486214
_cell_formula_units_Z   1
loop_
 _symmetry_equiv_pos_site_id
 _symmetry_equiv_pos_as_xyz
  1  'x, y, z'
loop_
 _atom_site_type_symbol
 _atom_site_label
 _atom_site_symmetry_multiplicity
 _atom_site_fract_x
 _atom_site_fract_y
 _atom_site_fract_z
 _atom_site_occupancy
  Ca  Ca0  1  0.50000000  0.00000000  0.00000000  1
  Ca  Ca1  1  0.50000000  0.00000000  0.50000000  1
  Ca  Ca2  1  0.00000000  0.00000000  0.50000000  1
  Ca  Ca3  1  0.50000000  0.50000000  0.00000000  1
  Ca  Ca4  1  0.00000000  0.50000000  0.00000000  1
  Ca  Ca5  1  0.00000000  0.50000000  0.50000000  1
  Hf  Hf6  1  0.00000000  0.00000000  0.00000000  1
  O  O7  1  0.78031300  0.21968700  0.21968700  1
  O  O8  1  0.25000000  0.25000000  0.25000000  1
  O  O9  1  0.21968700  0.78031300  0.21968700  1
  O  O10  1  0.21968700  0.21968700  0.78031300  1
  O  O11  1  0.78031300  0.21968700  0.78031300  1
  O  O12  1  0.78031300  0.78031300  0.21968700  1
  O  O13  1  0.75000000  0.75000000  0.75000000  1
  O  O14  1  0.21968700  0.78031300  0.78031300  1
