# generated using pymatgen
data_KRbO
_symmetry_space_group_name_H-M   'P 1'
_cell_length_a   4.79052900
_cell_length_b   4.79052900
_cell_length_c   6.73285300
_cell_angle_alpha   90.00000000
_cell_angle_beta   90.00000000
_cell_angle_gamma   90.00000000
_symmetry_Int_Tables_number   1
_chemical_formula_structural   KRbO
_chemical_formula_sum   'K2 Rb2 O2'
_cell_volume   154.51337529
_cell_formula_units_Z   2
loop_
 _symmetry_equiv_pos_site_id
 _symmetry_equiv_pos_as_xyz
  1  'x, y, z'
loop_
 _atom_site_type_symbol
 _atom_site_label
 _atom_site_symmetry_multiplicity
 _atom_site_fract_x
 _atom_site_fract_y
 _atom_site_fract_z
 _atom_site_occupancy
  K  K0  1  0.50000000  0.00000000  0.40363400  1
  K  K1  1  0.00000000  0.50000000  0.59636600  1
  Rb  Rb2  1  0.50000000  0.50000000  0.00000000  1
  Rb  Rb3  1  0.00000000  0.00000000  0.00000000  1
  O  O4  1  0.50000000  0.00000000  0.76768900  1
  O  O5  1  0.00000000  0.50000000  0.23231100  1
