# generated using pymatgen
data_Na6BeO4
_symmetry_space_group_name_H-M   'P 1'
_cell_length_a   7.31463189
_cell_length_b   7.31463189
_cell_length_c   5.76813800
_cell_angle_alpha   90.00000000
_cell_angle_beta   90.00000000
_cell_angle_gamma   119.99999897
_symmetry_Int_Tables_number   1
_chemical_formula_structural   Na6BeO4
_chemical_formula_sum   'Na12 Be2 O8'
_cell_volume   267.27062426
_cell_formula_units_Z   2
loop_
 _symmetry_equiv_pos_site_id
 _symmetry_equiv_pos_as_xyz
  1  'x, y, z'
loop_
 _atom_site_type_symbol
 _atom_site_label
 _atom_site_symmetry_multiplicity
 _atom_site_fract_x
 _atom_site_fract_y
 _atom_site_fract_z
 _atom_site_occupancy
  Na  Na0  1  0.14454700  0.85545300  0.38960600  1
  Na  Na1  1  0.06675600  0.53337800  0.71354000  1
  Na  Na2  1  0.14454700  0.28909300  0.38960600  1
  Na  Na3  1  0.46662200  0.93324400  0.71354000  1
  Na  Na4  1  0.46662200  0.53337800  0.71354000  1
  Na  Na5  1  0.28909300  0.14454700  0.88960600  1
  Na  Na6  1  0.71090700  0.85545300  0.38960600  1
  Na  Na7  1  0.53337800  0.46662200  0.21354000  1
  Na  Na8  1  0.53337800  0.06675600  0.21354000  1
  Na  Na9  1  0.85545300  0.71090700  0.88960600  1
  Na  Na10  1  0.93324400  0.46662200  0.21354000  1
  Na  Na11  1  0.85545300  0.14454700  0.88960600  1
  Be  Be12  1  0.33333300  0.66666700  0.10753400  1
  Be  Be13  1  0.66666700  0.33333300  0.60753400  1
  O  O14  1  0.20230400  0.79769600  0.00711200  1
  O  O15  1  0.33333300  0.66666700  0.40244600  1
  O  O16  1  0.20230400  0.40460800  0.00711200  1
  O  O17  1  0.59539200  0.79769600  0.00711200  1
  O  O18  1  0.40460800  0.20230400  0.50711200  1
  O  O19  1  0.66666700  0.33333300  0.90244600  1
  O  O20  1  0.79769600  0.59539200  0.50711200  1
  O  O21  1  0.79769600  0.20230400  0.50711200  1
