# generated using pymatgen
data_ZrO2
_symmetry_space_group_name_H-M   'P 1'
_cell_length_a   3.48182200
_cell_length_b   3.88098500
_cell_length_c   10.41383500
_cell_angle_alpha   90.00000000
_cell_angle_beta   90.00000000
_cell_angle_gamma   90.00000000
_symmetry_Int_Tables_number   1
_chemical_formula_structural   ZrO2
_chemical_formula_sum   'Zr4 O8'
_cell_volume   140.72110009
_cell_formula_units_Z   4
loop_
 _symmetry_equiv_pos_site_id
 _symmetry_equiv_pos_as_xyz
  1  'x, y, z'
loop_
 _atom_site_type_symbol
 _atom_site_label
 _atom_site_symmetry_multiplicity
 _atom_site_fract_x
 _atom_site_fract_y
 _atom_site_fract_z
 _atom_site_occupancy
  Zr  Zr0  1  0.75000000  0.74806700  0.88139000  1
  Zr  Zr1  1  0.75000000  0.75193300  0.38139000  1
  Zr  Zr2  1  0.25000000  0.25193300  0.11861000  1
  Zr  Zr3  1  0.25000000  0.24806700  0.61861000  1
  O  O4  1  0.75000000  0.43117700  0.21394500  1
  O  O5  1  0.75000000  0.06882300  0.71394500  1
  O  O6  1  0.75000000  0.26339600  0.47483200  1
  O  O7  1  0.75000000  0.23660400  0.97483200  1
  O  O8  1  0.25000000  0.73660400  0.52516800  1
  O  O9  1  0.25000000  0.76339600  0.02516800  1
  O  O10  1  0.25000000  0.56882300  0.78605500  1
  O  O11  1  0.25000000  0.93117700  0.28605500  1
