# generated using pymatgen
data_Rb4SiO4
_symmetry_space_group_name_H-M   'P 1'
_cell_length_a   6.83044000
_cell_length_b   6.91789209
_cell_length_c   9.46113671
_cell_angle_alpha   81.89136107
_cell_angle_beta   73.47456381
_cell_angle_gamma   62.45078231
_symmetry_Int_Tables_number   1
_chemical_formula_structural   Rb4SiO4
_chemical_formula_sum   'Rb8 Si2 O8'
_cell_volume   379.97324176
_cell_formula_units_Z   2
loop_
 _symmetry_equiv_pos_site_id
 _symmetry_equiv_pos_as_xyz
  1  'x, y, z'
loop_
 _atom_site_type_symbol
 _atom_site_label
 _atom_site_symmetry_multiplicity
 _atom_site_fract_x
 _atom_site_fract_y
 _atom_site_fract_z
 _atom_site_occupancy
  Rb  Rb0  1  0.24440800  0.72479900  0.96309600  1
  Rb  Rb1  1  0.49771600  0.73157300  0.55890600  1
  Rb  Rb2  1  0.63478200  0.78803000  0.13660100  1
  Rb  Rb3  1  0.06391800  0.76165000  0.36808900  1
  Rb  Rb4  1  0.93608200  0.23835000  0.63191100  1
  Rb  Rb5  1  0.36521800  0.21197000  0.86339900  1
  Rb  Rb6  1  0.50228400  0.26842700  0.44109400  1
  Rb  Rb7  1  0.75559200  0.27520100  0.03690400  1
  Si  Si8  1  0.85940300  0.76427000  0.74811500  1
  Si  Si9  1  0.14059700  0.23573000  0.25188500  1
  O  O10  1  0.85163200  0.92201800  0.87105700  1
  O  O11  1  0.72953800  0.93435500  0.62243100  1
  O  O12  1  0.71007000  0.62577700  0.83182000  1
  O  O13  1  0.87087200  0.40734400  0.33159700  1
  O  O14  1  0.12912800  0.59265600  0.66840300  1
  O  O15  1  0.28993000  0.37422300  0.16818000  1
  O  O16  1  0.27046200  0.06564500  0.37756900  1
  O  O17  1  0.14836800  0.07798200  0.12894300  1
