# generated using pymatgen
data_WN2
_symmetry_space_group_name_H-M   'P 1'
_cell_length_a   5.36493200
_cell_length_b   5.70539700
_cell_length_c   9.43438300
_cell_angle_alpha   90.00000000
_cell_angle_beta   90.00000000
_cell_angle_gamma   90.00000000
_symmetry_Int_Tables_number   1
_chemical_formula_structural   WN2
_chemical_formula_sum   'W8 N16'
_cell_volume   288.77766077
_cell_formula_units_Z   8
loop_
 _symmetry_equiv_pos_site_id
 _symmetry_equiv_pos_as_xyz
  1  'x, y, z'
loop_
 _atom_site_type_symbol
 _atom_site_label
 _atom_site_symmetry_multiplicity
 _atom_site_fract_x
 _atom_site_fract_y
 _atom_site_fract_z
 _atom_site_occupancy
  W  W0  1  0.16674800  0.90790900  0.12655100  1
  W  W1  1  0.66674800  0.59209100  0.12655100  1
  W  W2  1  0.16674800  0.40790900  0.37344900  1
  W  W3  1  0.66674800  0.09209100  0.37344900  1
  W  W4  1  0.33325200  0.90790900  0.62655100  1
  W  W5  1  0.83325200  0.59209100  0.62655100  1
  W  W6  1  0.33325200  0.40790900  0.87344900  1
  W  W7  1  0.83325200  0.09209100  0.87344900  1
  N  N8  1  0.79425300  0.85592800  0.00714600  1
  N  N9  1  0.29425300  0.64407200  0.00714600  1
  N  N10  1  0.46367700  0.91735100  0.22954800  1
  N  N11  1  0.96367700  0.58264900  0.22954800  1
  N  N12  1  0.46367700  0.41735100  0.27045200  1
  N  N13  1  0.96367700  0.08264900  0.27045200  1
  N  N14  1  0.29425300  0.14407200  0.49285400  1
  N  N15  1  0.79425300  0.35592800  0.49285400  1
  N  N16  1  0.70574700  0.85592800  0.50714600  1
  N  N17  1  0.20574700  0.64407200  0.50714600  1
  N  N18  1  0.03632300  0.91735100  0.72954800  1
  N  N19  1  0.53632300  0.58264900  0.72954800  1
  N  N20  1  0.03632300  0.41735100  0.77045200  1
  N  N21  1  0.53632300  0.08264900  0.77045200  1
  N  N22  1  0.70574700  0.35592800  0.99285400  1
  N  N23  1  0.20574700  0.14407200  0.99285400  1
