# generated using pymatgen
data_NaDyO2
_symmetry_space_group_name_H-M   'P 1'
_cell_length_a   6.13573875
_cell_length_b   6.13573875
_cell_length_c   6.13573875
_cell_angle_alpha   135.67572033
_cell_angle_beta   135.67572033
_cell_angle_gamma   64.48207703
_symmetry_Int_Tables_number   1
_chemical_formula_structural   NaDyO2
_chemical_formula_sum   'Na2 Dy2 O4'
_cell_volume   111.21003097
_cell_formula_units_Z   2
loop_
 _symmetry_equiv_pos_site_id
 _symmetry_equiv_pos_as_xyz
  1  'x, y, z'
loop_
 _atom_site_type_symbol
 _atom_site_label
 _atom_site_symmetry_multiplicity
 _atom_site_fract_x
 _atom_site_fract_y
 _atom_site_fract_z
 _atom_site_occupancy
  Na  Na0  1  0.00000000  0.00000000  0.00000000  1
  Na  Na1  1  0.75000000  0.25000000  0.50000000  1
  Dy  Dy2  1  0.50000000  0.50000000  0.00000000  1
  Dy  Dy3  1  0.25000000  0.75000000  0.50000000  1
  O  O4  1  0.47147600  0.97147600  0.50000000  1
  O  O5  1  0.27852400  0.27852400  0.00000000  1
  O  O6  1  0.72147600  0.72147600  0.00000000  1
  O  O7  1  0.02852400  0.52852400  0.50000000  1
