# generated using pymatgen
data_Na5GdO4
_symmetry_space_group_name_H-M   'P 1'
_cell_length_a   6.11587600
_cell_length_b   6.13738300
_cell_length_c   8.45848700
_cell_angle_alpha   90.00000000
_cell_angle_beta   90.00000000
_cell_angle_gamma   90.00000000
_symmetry_Int_Tables_number   1
_chemical_formula_structural   Na5GdO4
_chemical_formula_sum   'Na10 Gd2 O8'
_cell_volume   317.49331373
_cell_formula_units_Z   2
loop_
 _symmetry_equiv_pos_site_id
 _symmetry_equiv_pos_as_xyz
  1  'x, y, z'
loop_
 _atom_site_type_symbol
 _atom_site_label
 _atom_site_symmetry_multiplicity
 _atom_site_fract_x
 _atom_site_fract_y
 _atom_site_fract_z
 _atom_site_occupancy
  Na  Na0  1  0.94688200  0.07969200  0.31815600  1
  Na  Na1  1  0.94688200  0.07969200  0.68184400  1
  Na  Na2  1  0.75996500  0.59958800  0.69195400  1
  Na  Na3  1  0.75996500  0.59958800  0.30804600  1
  Na  Na4  1  0.72582500  0.33886700  0.00000000  1
  Na  Na5  1  0.44688200  0.92030800  0.81815600  1
  Na  Na6  1  0.44688200  0.92030800  0.18184400  1
  Na  Na7  1  0.25996500  0.40041200  0.80804600  1
  Na  Na8  1  0.25996500  0.40041200  0.19195400  1
  Na  Na9  1  0.22582500  0.66113300  0.50000000  1
  Gd  Gd10  1  0.99202800  0.83863100  0.00000000  1
  Gd  Gd11  1  0.49202800  0.16136900  0.50000000  1
  O  O12  1  0.65321000  0.73861200  0.00000000  1
  O  O13  1  0.58715900  0.81803000  0.50000000  1
  O  O14  1  0.61006200  0.25949100  0.26492800  1
  O  O15  1  0.61006200  0.25949100  0.73507200  1
  O  O16  1  0.15321000  0.26138800  0.50000000  1
  O  O17  1  0.08715900  0.18197000  0.00000000  1
  O  O18  1  0.11006200  0.74050900  0.76492800  1
  O  O19  1  0.11006200  0.74050900  0.23507200  1
