# generated using pymatgen
data_Ca4I6O
_symmetry_space_group_name_H-M   'P 1'
_cell_length_a   10.28054154
_cell_length_b   10.28054154
_cell_length_c   7.78734800
_cell_angle_alpha   90.00000000
_cell_angle_beta   90.00000000
_cell_angle_gamma   119.99999701
_symmetry_Int_Tables_number   1
_chemical_formula_structural   Ca4I6O
_chemical_formula_sum   'Ca8 I12 O2'
_cell_volume   712.77459451
_cell_formula_units_Z   2
loop_
 _symmetry_equiv_pos_site_id
 _symmetry_equiv_pos_as_xyz
  1  'x, y, z'
loop_
 _atom_site_type_symbol
 _atom_site_label
 _atom_site_symmetry_multiplicity
 _atom_site_fract_x
 _atom_site_fract_y
 _atom_site_fract_z
 _atom_site_occupancy
  Ca  Ca0  1  0.21029200  0.78970800  0.01699700  1
  Ca  Ca1  1  0.33333300  0.66666700  0.39839300  1
  Ca  Ca2  1  0.21029200  0.42058300  0.01699700  1
  Ca  Ca3  1  0.57941700  0.78970800  0.01699700  1
  Ca  Ca4  1  0.42058300  0.21029200  0.51699700  1
  Ca  Ca5  1  0.66666700  0.33333300  0.89839300  1
  Ca  Ca6  1  0.78970800  0.57941700  0.51699700  1
  Ca  Ca7  1  0.78970800  0.21029200  0.51699700  1
  I  I8  1  0.13534400  0.86465600  0.38624000  1
  I  I9  1  0.07629400  0.53814700  0.70780800  1
  I  I10  1  0.13534400  0.27068700  0.38624000  1
  I  I11  1  0.46185300  0.92370600  0.70780800  1
  I  I12  1  0.46185300  0.53814700  0.70780800  1
  I  I13  1  0.27068700  0.13534400  0.88624000  1
  I  I14  1  0.72931300  0.86465600  0.38624000  1
  I  I15  1  0.53814700  0.46185300  0.20780800  1
  I  I16  1  0.53814700  0.07629400  0.20780800  1
  I  I17  1  0.86465600  0.72931300  0.88624000  1
  I  I18  1  0.92370600  0.46185300  0.20780800  1
  I  I19  1  0.86465600  0.13534400  0.88624000  1
  O  O20  1  0.33333300  0.66666700  0.10919400  1
  O  O21  1  0.66666700  0.33333300  0.60919400  1
