# generated using pymatgen
data_Cu(SbO2)2
_symmetry_space_group_name_H-M   'P 1'
_cell_length_a   8.91459500
_cell_length_b   8.91459500
_cell_length_c   5.89161600
_cell_angle_alpha   90.00000000
_cell_angle_beta   90.00000000
_cell_angle_gamma   90.00000000
_symmetry_Int_Tables_number   1
_chemical_formula_structural   Cu(SbO2)2
_chemical_formula_sum   'Cu4 Sb8 O16'
_cell_volume   468.20674717
_cell_formula_units_Z   4
loop_
 _symmetry_equiv_pos_site_id
 _symmetry_equiv_pos_as_xyz
  1  'x, y, z'
loop_
 _atom_site_type_symbol
 _atom_site_label
 _atom_site_symmetry_multiplicity
 _atom_site_fract_x
 _atom_site_fract_y
 _atom_site_fract_z
 _atom_site_occupancy
  Cu  Cu0  1  0.50000000  0.00000000  0.25000000  1
  Cu  Cu1  1  0.50000000  0.00000000  0.75000000  1
  Cu  Cu2  1  0.00000000  0.50000000  0.25000000  1
  Cu  Cu3  1  0.00000000  0.50000000  0.75000000  1
  Sb  Sb4  1  0.81106200  0.15233700  0.50000000  1
  Sb  Sb5  1  0.15233700  0.18893800  0.00000000  1
  Sb  Sb6  1  0.65233700  0.31106200  0.00000000  1
  Sb  Sb7  1  0.31106200  0.34766300  0.50000000  1
  Sb  Sb8  1  0.68893800  0.65233700  0.50000000  1
  Sb  Sb9  1  0.34766300  0.68893800  0.00000000  1
  Sb  Sb10  1  0.84766300  0.81106200  0.00000000  1
  Sb  Sb11  1  0.18893800  0.84766300  0.50000000  1
  O  O12  1  0.61919400  0.09117500  0.00000000  1
  O  O13  1  0.59117500  0.11919400  0.50000000  1
  O  O14  1  0.30358400  0.19641600  0.25000000  1
  O  O15  1  0.30358400  0.19641600  0.75000000  1
  O  O16  1  0.80358400  0.30358400  0.25000000  1
  O  O17  1  0.80358400  0.30358400  0.75000000  1
  O  O18  1  0.09117500  0.38080600  0.50000000  1
  O  O19  1  0.11919400  0.40882500  0.00000000  1
  O  O20  1  0.88080600  0.59117500  0.00000000  1
  O  O21  1  0.90882500  0.61919400  0.50000000  1
  O  O22  1  0.19641600  0.69641600  0.25000000  1
  O  O23  1  0.19641600  0.69641600  0.75000000  1
  O  O24  1  0.69641600  0.80358400  0.25000000  1
  O  O25  1  0.69641600  0.80358400  0.75000000  1
  O  O26  1  0.40882500  0.88080600  0.50000000  1
  O  O27  1  0.38080600  0.90882500  0.00000000  1
