# generated using pymatgen
data_Ca2Ti6N2O11
_symmetry_space_group_name_H-M   'P 1'
_cell_length_a   3.75552100
_cell_length_b   7.71916348
_cell_length_c   9.59897810
_cell_angle_alpha   100.89114122
_cell_angle_beta   90.14293849
_cell_angle_gamma   103.80716362
_symmetry_Int_Tables_number   1
_chemical_formula_structural   Ca2Ti6N2O11
_chemical_formula_sum   'Ca2 Ti6 N2 O11'
_cell_volume   265.03065988
_cell_formula_units_Z   1
loop_
 _symmetry_equiv_pos_site_id
 _symmetry_equiv_pos_as_xyz
  1  'x, y, z'
loop_
 _atom_site_type_symbol
 _atom_site_label
 _atom_site_symmetry_multiplicity
 _atom_site_fract_x
 _atom_site_fract_y
 _atom_site_fract_z
 _atom_site_occupancy
  Ca  Ca0  1  0.54427900  0.10376700  0.73077900  1
  Ca  Ca1  1  0.47949800  0.93536700  0.19916800  1
  Ti  Ti2  1  0.12597200  0.25198800  0.06558200  1
  Ti  Ti3  1  0.16064200  0.32027800  0.43467200  1
  Ti  Ti4  1  0.23857800  0.47649900  0.74750000  1
  Ti  Ti5  1  0.77435800  0.55193200  0.24297900  1
  Ti  Ti6  1  0.83441500  0.67319100  0.56998000  1
  Ti  Ti7  1  0.88971300  0.78048700  0.89289800  1
  N  N8  1  0.29386300  0.59019700  0.58754800  1
  N  N9  1  0.93638900  0.87609400  0.72785800  1
  O  O10  1  0.06009800  0.11081000  0.30897900  1
  O  O11  1  0.12257200  0.23965000  0.61010500  1
  O  O12  1  0.14259400  0.28488700  0.88663300  1
  O  O13  1  0.63960800  0.28019900  0.11168200  1
  O  O14  1  0.69804300  0.39636600  0.42522800  1
  O  O15  1  0.75323800  0.50573700  0.77261800  1
  O  O16  1  0.23541800  0.47398600  0.24110200  1
  O  O17  1  0.35655900  0.71390500  0.89918800  1
  O  O18  1  0.84316400  0.69257100  0.11650400  1
  O  O19  1  0.86696200  0.75142100  0.39934700  1
  O  O20  1  0.99596700  0.99974100  0.02953300  1
