# generated using pymatgen
data_LaMgI5
_symmetry_space_group_name_H-M   'P 1'
_cell_length_a   4.35709100
_cell_length_b   15.22545200
_cell_length_c   17.52556000
_cell_angle_alpha   90.00000000
_cell_angle_beta   90.00000000
_cell_angle_gamma   90.00000000
_symmetry_Int_Tables_number   1
_chemical_formula_structural   LaMgI5
_chemical_formula_sum   'La4 Mg4 I20'
_cell_volume   1162.62251456
_cell_formula_units_Z   4
loop_
 _symmetry_equiv_pos_site_id
 _symmetry_equiv_pos_as_xyz
  1  'x, y, z'
loop_
 _atom_site_type_symbol
 _atom_site_label
 _atom_site_symmetry_multiplicity
 _atom_site_fract_x
 _atom_site_fract_y
 _atom_site_fract_z
 _atom_site_occupancy
  La  La0  1  0.75000000  0.74430700  0.15599900  1
  La  La1  1  0.25000000  0.24430700  0.34400100  1
  La  La2  1  0.75000000  0.75569300  0.65599900  1
  La  La3  1  0.25000000  0.25569300  0.84400100  1
  Mg  Mg4  1  0.75000000  0.23813300  0.09217200  1
  Mg  Mg5  1  0.25000000  0.73813300  0.40782800  1
  Mg  Mg6  1  0.75000000  0.26186700  0.59217200  1
  Mg  Mg7  1  0.25000000  0.76186700  0.90782800  1
  I  I8  1  0.25000000  0.34468300  0.02559300  1
  I  I9  1  0.25000000  0.86311500  0.05242800  1
  I  I10  1  0.25000000  0.59392600  0.15379000  1
  I  I11  1  0.25000000  0.13593700  0.16153700  1
  I  I12  1  0.75000000  0.34944200  0.23291100  1
  I  I13  1  0.25000000  0.84944200  0.26708900  1
  I  I14  1  0.75000000  0.63593700  0.33846300  1
  I  I15  1  0.75000000  0.09392600  0.34621000  1
  I  I16  1  0.75000000  0.36311500  0.44757200  1
  I  I17  1  0.75000000  0.84468300  0.47440700  1
  I  I18  1  0.25000000  0.15531700  0.52559300  1
  I  I19  1  0.25000000  0.63688500  0.55242800  1
  I  I20  1  0.25000000  0.90607400  0.65379000  1
  I  I21  1  0.25000000  0.36406300  0.66153700  1
  I  I22  1  0.75000000  0.15055800  0.73291100  1
  I  I23  1  0.25000000  0.65055800  0.76708900  1
  I  I24  1  0.75000000  0.86406300  0.83846300  1
  I  I25  1  0.75000000  0.40607400  0.84621000  1
  I  I26  1  0.75000000  0.13688500  0.94757200  1
  I  I27  1  0.75000000  0.65531700  0.97440700  1
