# generated using pymatgen
data_TbNi4B
_symmetry_space_group_name_H-M   'P 1'
_cell_length_a   4.97396521
_cell_length_b   4.97396521
_cell_length_c   6.95790000
_cell_angle_alpha   90.00000000
_cell_angle_beta   90.00000000
_cell_angle_gamma   119.99998948
_symmetry_Int_Tables_number   1
_chemical_formula_structural   TbNi4B
_chemical_formula_sum   'Tb2 Ni8 B2'
_cell_volume   149.07827089
_cell_formula_units_Z   2
loop_
 _symmetry_equiv_pos_site_id
 _symmetry_equiv_pos_as_xyz
  1  'x, y, z'
loop_
 _atom_site_type_symbol
 _atom_site_label
 _atom_site_symmetry_multiplicity
 _atom_site_fract_x
 _atom_site_fract_y
 _atom_site_fract_z
 _atom_site_occupancy
  Tb  Tb0  1  0.00000000  0.00000000  0.50000000  1
  Tb  Tb1  1  0.00000000  0.00000000  0.00000000  1
  Ni  Ni2  1  0.33333300  0.66666700  0.00000000  1
  Ni  Ni3  1  0.66666700  0.33333300  0.00000000  1
  Ni  Ni4  1  0.50000000  0.00000000  0.29201300  1
  Ni  Ni5  1  0.50000000  0.50000000  0.29201300  1
  Ni  Ni6  1  0.00000000  0.50000000  0.29201300  1
  Ni  Ni7  1  0.50000000  0.00000000  0.70798700  1
  Ni  Ni8  1  0.50000000  0.50000000  0.70798700  1
  Ni  Ni9  1  0.00000000  0.50000000  0.70798700  1
  B  B10  1  0.66666700  0.33333300  0.50000000  1
  B  B11  1  0.33333300  0.66666700  0.50000000  1
