# generated using pymatgen
data_Pr2CdPd2
_symmetry_space_group_name_H-M   'P 1'
_cell_length_a   7.87390800
_cell_length_b   7.87390800
_cell_length_c   3.97153400
_cell_angle_alpha   90.00000000
_cell_angle_beta   90.00000000
_cell_angle_gamma   90.00000000
_symmetry_Int_Tables_number   1
_chemical_formula_structural   Pr2CdPd2
_chemical_formula_sum   'Pr4 Cd2 Pd4'
_cell_volume   246.22886154
_cell_formula_units_Z   2
loop_
 _symmetry_equiv_pos_site_id
 _symmetry_equiv_pos_as_xyz
  1  'x, y, z'
loop_
 _atom_site_type_symbol
 _atom_site_label
 _atom_site_symmetry_multiplicity
 _atom_site_fract_x
 _atom_site_fract_y
 _atom_site_fract_z
 _atom_site_occupancy
  Pr  Pr0  1  0.32546900  0.82546900  0.50000000  1
  Pr  Pr1  1  0.82546900  0.67453100  0.50000000  1
  Pr  Pr2  1  0.17453100  0.32546900  0.50000000  1
  Pr  Pr3  1  0.67453100  0.17453100  0.50000000  1
  Cd  Cd4  1  0.00000000  0.00000000  0.00000000  1
  Cd  Cd5  1  0.50000000  0.50000000  0.00000000  1
  Pd  Pd6  1  0.37306100  0.12693900  0.00000000  1
  Pd  Pd7  1  0.87306100  0.37306100  0.00000000  1
  Pd  Pd8  1  0.12693900  0.62693900  0.00000000  1
  Pd  Pd9  1  0.62693900  0.87306100  0.00000000  1
