# generated using pymatgen
data_La2SbO6
_symmetry_space_group_name_H-M   'P 1'
_cell_length_a   6.25605700
_cell_length_b   5.80835600
_cell_length_c   9.46370857
_cell_angle_alpha   58.11561189
_cell_angle_beta   90.00000000
_cell_angle_gamma   90.00000000
_symmetry_Int_Tables_number   1
_chemical_formula_structural   La2SbO6
_chemical_formula_sum   'La4 Sb2 O12'
_cell_volume   291.99951110
_cell_formula_units_Z   2
loop_
 _symmetry_equiv_pos_site_id
 _symmetry_equiv_pos_as_xyz
  1  'x, y, z'
loop_
 _atom_site_type_symbol
 _atom_site_label
 _atom_site_symmetry_multiplicity
 _atom_site_fract_x
 _atom_site_fract_y
 _atom_site_fract_z
 _atom_site_occupancy
  La  La0  1  0.58162100  0.20742000  0.25633200  1
  La  La1  1  0.08162100  0.79258000  0.24366800  1
  La  La2  1  0.91837900  0.20742000  0.75633200  1
  La  La3  1  0.41837900  0.79258000  0.74366800  1
  Sb  Sb4  1  0.00000000  0.50000000  0.00000000  1
  Sb  Sb5  1  0.50000000  0.50000000  0.50000000  1
  O  O6  1  0.06460100  0.57693400  0.77343100  1
  O  O7  1  0.27372000  0.28069900  0.07762700  1
  O  O8  1  0.34515200  0.84078700  0.44222300  1
  O  O9  1  0.84515200  0.15921300  0.05777700  1
  O  O10  1  0.77372000  0.71930100  0.42237300  1
  O  O11  1  0.56460100  0.42306600  0.72656900  1
  O  O12  1  0.43539900  0.57693400  0.27343100  1
  O  O13  1  0.22628000  0.28069900  0.57762700  1
  O  O14  1  0.15484800  0.84078700  0.94222300  1
  O  O15  1  0.65484800  0.15921300  0.55777700  1
  O  O16  1  0.72628000  0.71930100  0.92237300  1
  O  O17  1  0.93539900  0.42306600  0.22656900  1
