# generated using pymatgen
data_LuTa3O9
_symmetry_space_group_name_H-M   'P 1'
_cell_length_a   7.48857700
_cell_length_b   5.22950500
_cell_length_c   8.31240989
_cell_angle_alpha   87.36665751
_cell_angle_beta   90.00000000
_cell_angle_gamma   90.00000000
_symmetry_Int_Tables_number   1
_chemical_formula_structural   LuTa3O9
_chemical_formula_sum   'Lu2 Ta6 O18'
_cell_volume   325.18310693
_cell_formula_units_Z   2
loop_
 _symmetry_equiv_pos_site_id
 _symmetry_equiv_pos_as_xyz
  1  'x, y, z'
loop_
 _atom_site_type_symbol
 _atom_site_label
 _atom_site_symmetry_multiplicity
 _atom_site_fract_x
 _atom_site_fract_y
 _atom_site_fract_z
 _atom_site_occupancy
  Lu  Lu0  1  0.25000000  0.96337100  0.43549000  1
  Lu  Lu1  1  0.75000000  0.03662900  0.56451000  1
  Ta  Ta2  1  0.00000000  0.00000000  0.00000000  1
  Ta  Ta3  1  0.50000000  0.00000000  0.00000000  1
  Ta  Ta4  1  0.00609900  0.53155000  0.69388100  1
  Ta  Ta5  1  0.49390100  0.53155000  0.69388100  1
  Ta  Ta6  1  0.99390100  0.46845000  0.30611900  1
  Ta  Ta7  1  0.50609900  0.46845000  0.30611900  1
  O  O8  1  0.25000000  0.90313300  0.97614100  1
  O  O9  1  0.93222600  0.85517200  0.78300700  1
  O  O10  1  0.56777400  0.85517200  0.78300700  1
  O  O11  1  0.95498800  0.74704000  0.46801100  1
  O  O12  1  0.54501200  0.74704000  0.46801100  1
  O  O13  1  0.25000000  0.67005900  0.65098200  1
  O  O14  1  0.94679100  0.67098700  0.12064100  1
  O  O15  1  0.55320900  0.67098700  0.12064100  1
  O  O16  1  0.25000000  0.58679100  0.31733100  1
  O  O17  1  0.75000000  0.41320900  0.68266900  1
  O  O18  1  0.05320900  0.32901300  0.87935900  1
  O  O19  1  0.44679100  0.32901300  0.87935900  1
  O  O20  1  0.75000000  0.32994100  0.34901800  1
  O  O21  1  0.04501200  0.25296000  0.53198900  1
  O  O22  1  0.45498800  0.25296000  0.53198900  1
  O  O23  1  0.06777400  0.14482800  0.21699300  1
  O  O24  1  0.43222600  0.14482800  0.21699300  1
  O  O25  1  0.75000000  0.09686700  0.02385900  1
