# generated using pymatgen
data_NaBi5O8
_symmetry_space_group_name_H-M   'P 1'
_cell_length_a   7.52857400
_cell_length_b   7.77174986
_cell_length_c   10.10668275
_cell_angle_alpha   71.53933781
_cell_angle_beta   73.72507380
_cell_angle_gamma   81.30096402
_symmetry_Int_Tables_number   1
_chemical_formula_structural   NaBi5O8
_chemical_formula_sum   'Na2 Bi10 O16'
_cell_volume   537.16714850
_cell_formula_units_Z   2
loop_
 _symmetry_equiv_pos_site_id
 _symmetry_equiv_pos_as_xyz
  1  'x, y, z'
loop_
 _atom_site_type_symbol
 _atom_site_label
 _atom_site_symmetry_multiplicity
 _atom_site_fract_x
 _atom_site_fract_y
 _atom_site_fract_z
 _atom_site_occupancy
  Na  Na0  1  0.74152200  0.41611100  0.97356300  1
  Na  Na1  1  0.25847800  0.58388900  0.02643700  1
  Bi  Bi2  1  0.75233900  0.93676700  0.96536000  1
  Bi  Bi3  1  0.54864000  0.82555900  0.71860300  1
  Bi  Bi4  1  0.54327100  0.39848200  0.67894400  1
  Bi  Bi5  1  0.12251400  0.75334700  0.65908200  1
  Bi  Bi6  1  0.04857800  0.30301500  0.65686700  1
  Bi  Bi7  1  0.95142200  0.69698500  0.34313300  1
  Bi  Bi8  1  0.87748600  0.24665300  0.34091800  1
  Bi  Bi9  1  0.45672900  0.60151800  0.32105600  1
  Bi  Bi10  1  0.45136000  0.17444100  0.28139700  1
  Bi  Bi11  1  0.24766100  0.06323300  0.03464000  1
  O  O12  1  0.50070000  0.91395600  0.91117100  1
  O  O13  1  0.84265000  0.80925800  0.78616700  1
  O  O14  1  0.80780500  0.20397200  0.83173700  1
  O  O15  1  0.53558800  0.54879300  0.83221200  1
  O  O16  1  0.23695500  0.84245600  0.79225000  1
  O  O17  1  0.09922400  0.46635000  0.77514600  1
  O  O18  1  0.82827000  0.46536000  0.56511800  1
  O  O19  1  0.45157800  0.65999000  0.55427000  1
  O  O20  1  0.54842200  0.34001000  0.44573000  1
  O  O21  1  0.17173000  0.53464000  0.43488200  1
  O  O22  1  0.90077600  0.53365000  0.22485400  1
  O  O23  1  0.76304500  0.15754400  0.20775000  1
  O  O24  1  0.46441200  0.45120700  0.16778800  1
  O  O25  1  0.19219500  0.79602800  0.16826300  1
  O  O26  1  0.15735000  0.19074200  0.21383300  1
  O  O27  1  0.49930000  0.08604400  0.08882900  1
