# generated using pymatgen
data_MgCu2(SiO3)4
_symmetry_space_group_name_H-M   'P 1'
_cell_length_a   5.28503400
_cell_length_b   5.74623438
_cell_length_c   7.29517440
_cell_angle_alpha   84.83695191
_cell_angle_beta   80.23387958
_cell_angle_gamma   84.05414790
_symmetry_Int_Tables_number   1
_chemical_formula_structural   MgCu2(SiO3)4
_chemical_formula_sum   'Mg1 Cu2 Si4 O12'
_cell_volume   216.56879413
_cell_formula_units_Z   1
loop_
 _symmetry_equiv_pos_site_id
 _symmetry_equiv_pos_as_xyz
  1  'x, y, z'
loop_
 _atom_site_type_symbol
 _atom_site_label
 _atom_site_symmetry_multiplicity
 _atom_site_fract_x
 _atom_site_fract_y
 _atom_site_fract_z
 _atom_site_occupancy
  Mg  Mg0  1  0.00000000  0.00000000  0.00000000  1
  Cu  Cu1  1  0.50710300  0.82288100  0.18537200  1
  Cu  Cu2  1  0.49289700  0.17711900  0.81462800  1
  Si  Si3  1  0.30675300  0.78271000  0.61950900  1
  Si  Si4  1  0.77929300  0.58759100  0.80219800  1
  Si  Si5  1  0.22070700  0.41240900  0.19780200  1
  Si  Si6  1  0.69324700  0.21729000  0.38049100  1
  O  O7  1  0.24252400  0.00588200  0.75402700  1
  O  O8  1  0.75747600  0.99411800  0.24597300  1
  O  O9  1  0.73035400  0.79103900  0.95537900  1
  O  O10  1  0.29457200  0.87746000  0.40433300  1
  O  O11  1  0.57743500  0.63105700  0.65284200  1
  O  O12  1  0.25335400  0.67919000  0.09752600  1
  O  O13  1  0.07621400  0.60858400  0.69861100  1
  O  O14  1  0.92378600  0.39141600  0.30138900  1
  O  O15  1  0.74664600  0.32081000  0.90247400  1
  O  O16  1  0.42256500  0.36894300  0.34715800  1
  O  O17  1  0.70542800  0.12254000  0.59566700  1
  O  O18  1  0.26964600  0.20896100  0.04462100  1
