# generated using pymatgen
data_K3BaPCO7
_symmetry_space_group_name_H-M   'P 1'
_cell_length_a   7.85202400
_cell_length_b   5.81913100
_cell_length_c   10.24431724
_cell_angle_alpha   88.76304916
_cell_angle_beta   90.00000000
_cell_angle_gamma   90.00000000
_symmetry_Int_Tables_number   1
_chemical_formula_structural   K3BaPCO7
_chemical_formula_sum   'K6 Ba2 P2 C2 O14'
_cell_volume   467.97381769
_cell_formula_units_Z   2
loop_
 _symmetry_equiv_pos_site_id
 _symmetry_equiv_pos_as_xyz
  1  'x, y, z'
loop_
 _atom_site_type_symbol
 _atom_site_label
 _atom_site_symmetry_multiplicity
 _atom_site_fract_x
 _atom_site_fract_y
 _atom_site_fract_z
 _atom_site_occupancy
  K  K0  1  0.25000000  0.76118500  0.91562900  1
  K  K1  1  0.00732200  0.25178200  0.74626100  1
  K  K2  1  0.49267800  0.25178200  0.74626100  1
  K  K3  1  0.50732200  0.74821800  0.25373900  1
  K  K4  1  0.99267800  0.74821800  0.25373900  1
  K  K5  1  0.75000000  0.23881500  0.08437100  1
  Ba  Ba6  1  0.75000000  0.76715300  0.62700000  1
  Ba  Ba7  1  0.25000000  0.23284700  0.37300000  1
  P  P8  1  0.25000000  0.70141600  0.59436500  1
  P  P9  1  0.75000000  0.29858400  0.40563500  1
  C  C10  1  0.75000000  0.73767000  0.94038200  1
  C  C11  1  0.25000000  0.26233000  0.05961800  1
  O  O12  1  0.25000000  0.27770500  0.93223900  1
  O  O13  1  0.75000000  0.93927600  0.88184600  1
  O  O14  1  0.75000000  0.55094600  0.87142700  1
  O  O15  1  0.08829800  0.78590100  0.66790000  1
  O  O16  1  0.41170200  0.78590100  0.66790000  1
  O  O17  1  0.25000000  0.43271900  0.59550300  1
  O  O18  1  0.75000000  0.21219000  0.55201200  1
  O  O19  1  0.25000000  0.78781000  0.44798800  1
  O  O20  1  0.75000000  0.56728100  0.40449700  1
  O  O21  1  0.58829800  0.21409900  0.33210000  1
  O  O22  1  0.91170200  0.21409900  0.33210000  1
  O  O23  1  0.25000000  0.44905400  0.12857300  1
  O  O24  1  0.25000000  0.06072400  0.11815400  1
  O  O25  1  0.75000000  0.72229500  0.06776100  1
