# generated using pymatgen
data_La2(SiO3)3
_symmetry_space_group_name_H-M   'P 1'
_cell_length_a   6.84247237
_cell_length_b   6.84247237
_cell_length_c   10.25570500
_cell_angle_alpha   90.00000000
_cell_angle_beta   90.00000000
_cell_angle_gamma   120.00000354
_symmetry_Int_Tables_number   1
_chemical_formula_structural   La2(SiO3)3
_chemical_formula_sum   'La4 Si6 O18'
_cell_volume   415.83614940
_cell_formula_units_Z   2
loop_
 _symmetry_equiv_pos_site_id
 _symmetry_equiv_pos_as_xyz
  1  'x, y, z'
loop_
 _atom_site_type_symbol
 _atom_site_label
 _atom_site_symmetry_multiplicity
 _atom_site_fract_x
 _atom_site_fract_y
 _atom_site_fract_z
 _atom_site_occupancy
  La  La0  1  0.33333300  0.66666700  0.97892400  1
  La  La1  1  0.33333300  0.66666700  0.52107600  1
  La  La2  1  0.66666700  0.33333300  0.47892400  1
  La  La3  1  0.66666700  0.33333300  0.02107600  1
  Si  Si4  1  0.23703500  0.96614800  0.25000000  1
  Si  Si5  1  0.03385200  0.27088700  0.25000000  1
  Si  Si6  1  0.27088700  0.23703500  0.75000000  1
  Si  Si7  1  0.72911300  0.76296500  0.25000000  1
  Si  Si8  1  0.96614800  0.72911300  0.75000000  1
  Si  Si9  1  0.76296500  0.03385200  0.75000000  1
  O  O10  1  0.20904800  0.97096000  0.75000000  1
  O  O11  1  0.36753500  0.96398200  0.11730900  1
  O  O12  1  0.36753500  0.96398200  0.38269100  1
  O  O13  1  0.03601800  0.40355300  0.38269100  1
  O  O14  1  0.03601800  0.40355300  0.11730900  1
  O  O15  1  0.02904000  0.23808800  0.75000000  1
  O  O16  1  0.23808800  0.20904800  0.25000000  1
  O  O17  1  0.59644700  0.63246500  0.11730900  1
  O  O18  1  0.59644700  0.63246500  0.38269100  1
  O  O19  1  0.40355300  0.36753500  0.61730900  1
  O  O20  1  0.40355300  0.36753500  0.88269100  1
  O  O21  1  0.76191200  0.79095200  0.75000000  1
  O  O22  1  0.97096000  0.76191200  0.25000000  1
  O  O23  1  0.96398200  0.59644700  0.61730900  1
  O  O24  1  0.96398200  0.59644700  0.88269100  1
  O  O25  1  0.63246500  0.03601800  0.61730900  1
  O  O26  1  0.63246500  0.03601800  0.88269100  1
  O  O27  1  0.79095200  0.02904000  0.25000000  1
