# generated using pymatgen
data_BaCaO2
_symmetry_space_group_name_H-M   'P 1'
_cell_length_a   3.76412400
_cell_length_b   6.32443000
_cell_length_c   12.26173400
_cell_angle_alpha   90.00000000
_cell_angle_beta   90.00000000
_cell_angle_gamma   90.00000000
_symmetry_Int_Tables_number   1
_chemical_formula_structural   BaCaO2
_chemical_formula_sum   'Ba4 Ca4 O8'
_cell_volume   291.90208856
_cell_formula_units_Z   4
loop_
 _symmetry_equiv_pos_site_id
 _symmetry_equiv_pos_as_xyz
  1  'x, y, z'
loop_
 _atom_site_type_symbol
 _atom_site_label
 _atom_site_symmetry_multiplicity
 _atom_site_fract_x
 _atom_site_fract_y
 _atom_site_fract_z
 _atom_site_occupancy
  Ba  Ba0  1  0.25000000  0.59357500  0.64221400  1
  Ba  Ba1  1  0.25000000  0.09357500  0.85778600  1
  Ba  Ba2  1  0.75000000  0.40642500  0.35778600  1
  Ba  Ba3  1  0.75000000  0.90642500  0.14221400  1
  Ca  Ca4  1  0.25000000  0.90897900  0.39270900  1
  Ca  Ca5  1  0.25000000  0.40897900  0.10729100  1
  Ca  Ca6  1  0.75000000  0.59102100  0.89270900  1
  Ca  Ca7  1  0.75000000  0.09102100  0.60729100  1
  O  O8  1  0.25000000  0.21587800  0.51831800  1
  O  O9  1  0.25000000  0.71587800  0.98168200  1
  O  O10  1  0.25000000  0.65115500  0.25228500  1
  O  O11  1  0.25000000  0.15115500  0.24771500  1
  O  O12  1  0.75000000  0.84884500  0.75228500  1
  O  O13  1  0.75000000  0.34884500  0.74771500  1
  O  O14  1  0.75000000  0.78412200  0.48168200  1
  O  O15  1  0.75000000  0.28412200  0.01831800  1
