# generated using pymatgen
data_Ho2SO2
_symmetry_space_group_name_H-M   'P 1'
_cell_length_a   3.77726883
_cell_length_b   3.77726883
_cell_length_c   13.31796400
_cell_angle_alpha   90.00000000
_cell_angle_beta   90.00000000
_cell_angle_gamma   120.00001449
_symmetry_Int_Tables_number   1
_chemical_formula_structural   Ho2SO2
_chemical_formula_sum   'Ho4 S2 O4'
_cell_volume   164.55996791
_cell_formula_units_Z   2
loop_
 _symmetry_equiv_pos_site_id
 _symmetry_equiv_pos_as_xyz
  1  'x, y, z'
loop_
 _atom_site_type_symbol
 _atom_site_label
 _atom_site_symmetry_multiplicity
 _atom_site_fract_x
 _atom_site_fract_y
 _atom_site_fract_z
 _atom_site_occupancy
  Ho  Ho0  1  0.33333300  0.66666700  0.89238100  1
  Ho  Ho1  1  0.33333300  0.66666700  0.60761900  1
  Ho  Ho2  1  0.66666700  0.33333300  0.39238100  1
  Ho  Ho3  1  0.66666700  0.33333300  0.10761900  1
  S  S4  1  0.00000000  0.00000000  0.25000000  1
  S  S5  1  0.00000000  0.00000000  0.75000000  1
  O  O6  1  0.33333300  0.66666700  0.06472500  1
  O  O7  1  0.33333300  0.66666700  0.43527500  1
  O  O8  1  0.66666700  0.33333300  0.93527500  1
  O  O9  1  0.66666700  0.33333300  0.56472500  1
