# generated using pymatgen
data_BaCa2I6
_symmetry_space_group_name_H-M   'P 1'
_cell_length_a   8.03783585
_cell_length_b   8.03783585
_cell_length_c   7.64080900
_cell_angle_alpha   90.00000000
_cell_angle_beta   90.00000000
_cell_angle_gamma   119.99999881
_symmetry_Int_Tables_number   1
_chemical_formula_structural   BaCa2I6
_chemical_formula_sum   'Ba1 Ca2 I6'
_cell_volume   427.51193786
_cell_formula_units_Z   1
loop_
 _symmetry_equiv_pos_site_id
 _symmetry_equiv_pos_as_xyz
  1  'x, y, z'
loop_
 _atom_site_type_symbol
 _atom_site_label
 _atom_site_symmetry_multiplicity
 _atom_site_fract_x
 _atom_site_fract_y
 _atom_site_fract_z
 _atom_site_occupancy
  Ba  Ba0  1  0.00000000  0.00000000  0.00000000  1
  Ca  Ca1  1  0.33333300  0.66666700  0.50000000  1
  Ca  Ca2  1  0.66666700  0.33333300  0.50000000  1
  I  I3  1  0.00000000  0.64657400  0.73254700  1
  I  I4  1  0.00000000  0.35342600  0.26745300  1
  I  I5  1  0.35342600  0.35342600  0.73254700  1
  I  I6  1  0.64657400  0.64657400  0.26745300  1
  I  I7  1  0.35342600  0.00000000  0.26745300  1
  I  I8  1  0.64657400  0.00000000  0.73254700  1
