# generated using pymatgen
data_SnP2O7
_symmetry_space_group_name_H-M   'P 1'
_cell_length_a   5.17490300
_cell_length_b   8.74975800
_cell_length_c   13.75994423
_cell_angle_alpha   64.37221872
_cell_angle_beta   90.00000000
_cell_angle_gamma   90.00000000
_symmetry_Int_Tables_number   1
_chemical_formula_structural   SnP2O7
_chemical_formula_sum   'Sn4 P8 O28'
_cell_volume   561.74584499
_cell_formula_units_Z   4
loop_
 _symmetry_equiv_pos_site_id
 _symmetry_equiv_pos_as_xyz
  1  'x, y, z'
loop_
 _atom_site_type_symbol
 _atom_site_label
 _atom_site_symmetry_multiplicity
 _atom_site_fract_x
 _atom_site_fract_y
 _atom_site_fract_z
 _atom_site_occupancy
  Sn  Sn0  1  0.74571800  0.76470000  0.97402400  1
  Sn  Sn1  1  0.75428200  0.76470000  0.47402400  1
  Sn  Sn2  1  0.24571800  0.23530000  0.52597600  1
  Sn  Sn3  1  0.25428200  0.23530000  0.02597600  1
  P  P4  1  0.74860900  0.19126200  0.88249000  1
  P  P5  1  0.24243000  0.67012500  0.86051100  1
  P  P6  1  0.24860900  0.80873800  0.61751000  1
  P  P7  1  0.74243000  0.32987500  0.63948900  1
  P  P8  1  0.25757000  0.67012500  0.36051100  1
  P  P9  1  0.75139100  0.19126200  0.38249000  1
  P  P10  1  0.75757000  0.32987500  0.13948900  1
  P  P11  1  0.25139100  0.80873800  0.11751000  1
  O  O12  1  0.91848900  0.27184100  0.93809900  1
  O  O13  1  0.46283600  0.19174200  0.91201200  1
  O  O14  1  0.31235200  0.48897100  0.93480600  1
  O  O15  1  0.95830000  0.71860200  0.86285900  1
  O  O16  1  0.84015800  0.01764600  0.89520200  1
  O  O17  1  0.42923200  0.79492400  0.87577200  1
  O  O18  1  0.78294500  0.31895400  0.75781000  1
  O  O19  1  0.28294500  0.68104600  0.74219000  1
  O  O20  1  0.92923200  0.20507600  0.62422800  1
  O  O21  1  0.81235200  0.51102900  0.56519400  1
  O  O22  1  0.96283600  0.80825800  0.58798800  1
  O  O23  1  0.34015800  0.98235400  0.60479800  1
  O  O24  1  0.41848900  0.72815900  0.56190100  1
  O  O25  1  0.45830000  0.28139800  0.63714100  1
  O  O26  1  0.54170000  0.71860200  0.36285900  1
  O  O27  1  0.58151100  0.27184100  0.43809900  1
  O  O28  1  0.65984200  0.01764600  0.39520200  1
  O  O29  1  0.03716400  0.19174200  0.41201200  1
  O  O30  1  0.18764800  0.48897100  0.43480600  1
  O  O31  1  0.07076800  0.79492400  0.37577200  1
  O  O32  1  0.71705500  0.31895400  0.25781000  1
  O  O33  1  0.21705500  0.68104600  0.24219000  1
  O  O34  1  0.57076800  0.20507600  0.12422800  1
  O  O35  1  0.15984200  0.98235400  0.10479800  1
  O  O36  1  0.04170000  0.28139800  0.13714100  1
  O  O37  1  0.68764800  0.51102900  0.06519400  1
  O  O38  1  0.53716400  0.80825800  0.08798800  1
  O  O39  1  0.08151100  0.72815900  0.06190100  1
