# generated using pymatgen
data_Sb5O7F
_symmetry_space_group_name_H-M   'P 1'
_cell_length_a   4.15791300
_cell_length_b   10.10533385
_cell_length_c   13.09230715
_cell_angle_alpha   72.23113907
_cell_angle_beta   81.10000397
_cell_angle_gamma   78.27142015
_symmetry_Int_Tables_number   1
_chemical_formula_structural   Sb5O7F
_chemical_formula_sum   'Sb10 O14 F2'
_cell_volume   510.38122355
_cell_formula_units_Z   2
loop_
 _symmetry_equiv_pos_site_id
 _symmetry_equiv_pos_as_xyz
  1  'x, y, z'
loop_
 _atom_site_type_symbol
 _atom_site_label
 _atom_site_symmetry_multiplicity
 _atom_site_fract_x
 _atom_site_fract_y
 _atom_site_fract_z
 _atom_site_occupancy
  Sb  Sb0  1  0.46344500  0.73646500  0.33990100  1
  Sb  Sb1  1  0.89207400  0.66594200  0.55880400  1
  Sb  Sb2  1  0.22625100  0.66291700  0.88865900  1
  Sb  Sb3  1  0.40255100  0.06016400  0.12779900  1
  Sb  Sb4  1  0.76723700  0.09797700  0.35602100  1
  Sb  Sb5  1  0.23276300  0.90202300  0.64397900  1
  Sb  Sb6  1  0.59744900  0.93983600  0.87220100  1
  Sb  Sb7  1  0.77374900  0.33708300  0.11134100  1
  Sb  Sb8  1  0.10792600  0.33405800  0.44119600  1
  Sb  Sb9  1  0.53655500  0.26353500  0.66009900  1
  O  O10  1  0.93898900  0.73523800  0.39064100  1
  O  O11  1  0.39698900  0.71124400  0.50132000  1
  O  O12  1  0.29155500  0.69697500  0.72089900  1
  O  O13  1  0.38318400  0.94891000  0.28762700  1
  O  O14  1  0.69890100  0.73683500  0.87219700  1
  O  O15  1  0.78460400  0.85355300  0.58560200  1
  O  O16  1  0.85622700  0.10419600  0.17509100  1
  O  O17  1  0.14377300  0.89580400  0.82490900  1
  O  O18  1  0.21539600  0.14644700  0.41439800  1
  O  O19  1  0.30109900  0.26316500  0.12780300  1
  O  O20  1  0.61681600  0.05109000  0.71237300  1
  O  O21  1  0.70844500  0.30302500  0.27910100  1
  O  O22  1  0.60301100  0.28875600  0.49868000  1
  O  O23  1  0.06101100  0.26476200  0.60935900  1
  F  F24  1  0.87573700  0.25237500  0.97701200  1
  F  F25  1  0.12426300  0.74762500  0.02298800  1
