# generated using pymatgen
data_CeScSi
_symmetry_space_group_name_H-M   'P 1'
_cell_length_a   8.48675731
_cell_length_b   8.48675731
_cell_length_c   8.48675731
_cell_angle_alpha   151.06745933
_cell_angle_beta   151.06745933
_cell_angle_gamma   41.37671030
_symmetry_Int_Tables_number   1
_chemical_formula_structural   CeScSi
_chemical_formula_sum   'Ce2 Sc2 Si2'
_cell_volume   142.74345182
_cell_formula_units_Z   2
loop_
 _symmetry_equiv_pos_site_id
 _symmetry_equiv_pos_as_xyz
  1  'x, y, z'
loop_
 _atom_site_type_symbol
 _atom_site_label
 _atom_site_symmetry_multiplicity
 _atom_site_fract_x
 _atom_site_fract_y
 _atom_site_fract_z
 _atom_site_occupancy
  Ce  Ce0  1  0.67894600  0.67894600  0.00000000  1
  Ce  Ce1  1  0.32105400  0.32105400  0.00000000  1
  Sc  Sc2  1  0.00000000  0.50000000  0.50000000  1
  Sc  Sc3  1  0.50000000  0.00000000  0.50000000  1
  Si  Si4  1  0.87710000  0.87710000  0.00000000  1
  Si  Si5  1  0.12290000  0.12290000  0.00000000  1
