# generated using pymatgen
data_YH5S3O13
_symmetry_space_group_name_H-M   'P 1'
_cell_length_a   6.86874800
_cell_length_b   8.11926018
_cell_length_c   9.74256352
_cell_angle_alpha   79.84785102
_cell_angle_beta   77.58479882
_cell_angle_gamma   77.57969599
_symmetry_Int_Tables_number   1
_chemical_formula_structural   YH5S3O13
_chemical_formula_sum   'Y2 H10 S6 O26'
_cell_volume   513.37206564
_cell_formula_units_Z   2
loop_
 _symmetry_equiv_pos_site_id
 _symmetry_equiv_pos_as_xyz
  1  'x, y, z'
loop_
 _atom_site_type_symbol
 _atom_site_label
 _atom_site_symmetry_multiplicity
 _atom_site_fract_x
 _atom_site_fract_y
 _atom_site_fract_z
 _atom_site_occupancy
  Y  Y0  1  0.13405300  0.67656300  0.69344500  1
  Y  Y1  1  0.86594700  0.32343700  0.30655500  1
  H  H2  1  0.07155800  0.77580200  0.18113000  1
  H  H3  1  0.42241500  0.13450200  0.61775600  1
  H  H4  1  0.59294800  0.21069600  0.13619000  1
  H  H5  1  0.19933000  0.92047400  0.86440900  1
  H  H6  1  0.50839900  0.86288200  0.10431900  1
  H  H7  1  0.49160100  0.13711800  0.89568100  1
  H  H8  1  0.80067000  0.07952600  0.13559100  1
  H  H9  1  0.40705200  0.78930400  0.86381000  1
  H  H10  1  0.57758500  0.86549800  0.38224400  1
  H  H11  1  0.92844200  0.22419800  0.81887000  1
  S  S12  1  0.19946100  0.88942100  0.31879300  1
  S  S13  1  0.30646900  0.33505800  0.45936800  1
  S  S14  1  0.20515700  0.29165100  0.95488100  1
  S  S15  1  0.79484300  0.70834900  0.04511900  1
  S  S16  1  0.69353100  0.66494200  0.54063200  1
  S  S17  1  0.80053900  0.11057900  0.68120700  1
  O  O18  1  0.05397300  0.03823200  0.27356600  1
  O  O19  1  0.10447500  0.35175200  0.08858300  1
  O  O20  1  0.18498900  0.32302600  0.35688300  1
  O  O21  1  0.10557000  0.17096100  0.91035400  1
  O  O22  1  0.17612500  0.73946800  0.24577100  1
  O  O23  1  0.20249200  0.45871200  0.55582300  1
  O  O24  1  0.16241800  0.83500700  0.47133200  1
  O  O25  1  0.32613500  0.15287900  0.54917100  1
  O  O26  1  0.25290400  0.42931400  0.84107700  1
  O  O27  1  0.50918400  0.36513100  0.39000300  1
  O  O28  1  0.41329400  0.91148200  0.26782800  1
  O  O29  1  0.27513500  0.81224100  0.83441300  1
  O  O30  1  0.41691500  0.18521100  0.98602800  1
  O  O31  1  0.58308500  0.81478900  0.01397200  1
  O  O32  1  0.72486500  0.18775900  0.16558700  1
  O  O33  1  0.58670600  0.08851800  0.73217200  1
  O  O34  1  0.49081600  0.63486900  0.60999700  1
  O  O35  1  0.74709600  0.57068600  0.15892300  1
  O  O36  1  0.67386500  0.84712100  0.45082900  1
  O  O37  1  0.83758200  0.16499300  0.52866800  1
  O  O38  1  0.79750800  0.54128800  0.44417700  1
  O  O39  1  0.82387500  0.26053200  0.75422900  1
  O  O40  1  0.89443000  0.82903900  0.08964600  1
  O  O41  1  0.81501100  0.67697400  0.64311700  1
  O  O42  1  0.89552500  0.64824800  0.91141700  1
  O  O43  1  0.94602700  0.96176800  0.72643400  1
