# generated using pymatgen
data_K2SiF6
_symmetry_space_group_name_H-M   'P 1'
_cell_length_a   5.73783263
_cell_length_b   5.73783263
_cell_length_c   9.41446100
_cell_angle_alpha   90.00000000
_cell_angle_beta   90.00000000
_cell_angle_gamma   120.00000724
_symmetry_Int_Tables_number   1
_chemical_formula_structural   K2SiF6
_chemical_formula_sum   'K4 Si2 F12'
_cell_volume   268.42428951
_cell_formula_units_Z   2
loop_
 _symmetry_equiv_pos_site_id
 _symmetry_equiv_pos_as_xyz
  1  'x, y, z'
loop_
 _atom_site_type_symbol
 _atom_site_label
 _atom_site_symmetry_multiplicity
 _atom_site_fract_x
 _atom_site_fract_y
 _atom_site_fract_z
 _atom_site_occupancy
  K  K0  1  0.00000000  0.00000000  0.31235700  1
  K  K1  1  0.00000000  0.00000000  0.81235700  1
  K  K2  1  0.33333300  0.66666700  0.59165100  1
  K  K3  1  0.66666700  0.33333300  0.09165100  1
  Si  Si4  1  0.66666700  0.33333300  0.47567100  1
  Si  Si5  1  0.33333300  0.66666700  0.97567100  1
  F  F6  1  0.94804500  0.47402200  0.36878000  1
  F  F7  1  0.47402200  0.94804500  0.86878000  1
  F  F8  1  0.47402200  0.52597800  0.86878000  1
  F  F9  1  0.52597800  0.47402200  0.36878000  1
  F  F10  1  0.52597800  0.05195500  0.36878000  1
  F  F11  1  0.05195500  0.52597800  0.86878000  1
  F  F12  1  0.61928300  0.80964100  0.07830700  1
  F  F13  1  0.80964100  0.61928300  0.57830700  1
  F  F14  1  0.80964100  0.19035900  0.57830700  1
  F  F15  1  0.19035900  0.80964100  0.07830700  1
  F  F16  1  0.19035900  0.38071700  0.07830700  1
  F  F17  1  0.38071700  0.19035900  0.57830700  1
