# generated using pymatgen
data_Gd3Y5O12
_symmetry_space_group_name_H-M   'P 1'
_cell_length_a   9.31281700
_cell_length_b   9.31922583
_cell_length_c   9.31903641
_cell_angle_alpha   109.48171819
_cell_angle_beta   109.42975453
_cell_angle_gamma   109.44858360
_symmetry_Int_Tables_number   1
_chemical_formula_structural   Gd3Y5O12
_chemical_formula_sum   'Gd6 Y10 O24'
_cell_volume   623.01275157
_cell_formula_units_Z   2
loop_
 _symmetry_equiv_pos_site_id
 _symmetry_equiv_pos_as_xyz
  1  'x, y, z'
loop_
 _atom_site_type_symbol
 _atom_site_label
 _atom_site_symmetry_multiplicity
 _atom_site_fract_x
 _atom_site_fract_y
 _atom_site_fract_z
 _atom_site_occupancy
  Gd  Gd0  1  0.46806900  0.25025900  0.71885800  1
  Gd  Gd1  1  0.53304200  0.74987100  0.28276000  1
  Gd  Gd2  1  0.03158600  0.74920900  0.78130900  1
  Gd  Gd3  1  0.75090600  0.21829300  0.46734300  1
  Gd  Gd4  1  0.24932600  0.28247600  0.03210100  1
  Gd  Gd5  1  0.28120300  0.03216900  0.24998400  1
  Y  Y6  1  0.50078300  0.99913300  0.99927500  1
  Y  Y7  1  0.71666100  0.96651300  0.75062100  1
  Y  Y8  1  0.74941200  0.71739700  0.96730700  1
  Y  Y9  1  0.24983900  0.78162900  0.53290400  1
  Y  Y10  1  0.96630800  0.25033000  0.21643000  1
  Y  Y11  1  0.49895000  0.50096900  0.50085000  1
  Y  Y12  1  0.99996700  0.99964300  0.49906400  1
  Y  Y13  1  0.21700900  0.46702500  0.74910600  1
  Y  Y14  1  0.99975500  0.49996100  0.00059500  1
  Y  Y15  1  0.78425600  0.53364000  0.25012000  1
  O  O16  1  0.73133900  0.45977100  0.97068600  1
  O  O17  1  0.51062700  0.03978800  0.77174100  1
  O  O18  1  0.26257000  0.03096500  0.98839300  1
  O  O19  1  0.45742700  0.72820100  0.49093700  1
  O  O20  1  0.23598400  0.22799700  0.76766300  1
  O  O21  1  0.04318700  0.53197800  0.27100400  1
  O  O22  1  0.76804600  0.73878900  0.72834100  1
  O  O23  1  0.98919500  0.76066200  0.52935600  1
  O  O24  1  0.46886400  0.51295800  0.74068800  1
  O  O25  1  0.72845100  0.27053200  0.23565300  1
  O  O26  1  0.96520300  0.22945400  0.95783700  1
  O  O27  1  0.22762000  0.98691900  0.45860500  1
  O  O28  1  0.27278700  0.72853800  0.75999600  1
  O  O29  1  0.77381500  0.01054100  0.54448500  1
  O  O30  1  0.53397400  0.48955400  0.26332600  1
  O  O31  1  0.02868100  0.76867900  0.04154600  1
  O  O32  1  0.01222900  0.23927100  0.46757800  1
  O  O33  1  0.22893100  0.26322000  0.27312000  1
  O  O34  1  0.76339500  0.77230700  0.22959200  1
  O  O35  1  0.95989000  0.46821300  0.73169000  1
  O  O36  1  0.54213500  0.27430700  0.51129800  1
  O  O37  1  0.73975300  0.96835800  0.01141300  1
  O  O38  1  0.26893000  0.54196800  0.02959500  1
  O  O39  1  0.48989600  0.95851300  0.22683100  1
