# generated using pymatgen
data_Y6O5F8
_symmetry_space_group_name_H-M   'P 1'
_cell_length_a   5.61380100
_cell_length_b   5.48738400
_cell_length_c   33.53700573
_cell_angle_alpha   89.89461003
_cell_angle_beta   90.00000000
_cell_angle_gamma   90.00000000
_symmetry_Int_Tables_number   1
_chemical_formula_structural   Y6O5F8
_chemical_formula_sum   'Y24 O20 F32'
_cell_volume   1033.10845682
_cell_formula_units_Z   4
loop_
 _symmetry_equiv_pos_site_id
 _symmetry_equiv_pos_as_xyz
  1  'x, y, z'
loop_
 _atom_site_type_symbol
 _atom_site_label
 _atom_site_symmetry_multiplicity
 _atom_site_fract_x
 _atom_site_fract_y
 _atom_site_fract_z
 _atom_site_occupancy
  Y  Y0  1  0.25179300  0.71036800  0.99995800  1
  Y  Y1  1  0.24820700  0.71036800  0.49995800  1
  Y  Y2  1  0.71349500  0.72257200  0.74929000  1
  Y  Y3  1  0.78650500  0.72257200  0.24929000  1
  Y  Y4  1  0.21319000  0.70767200  0.33576600  1
  Y  Y5  1  0.26124700  0.71138900  0.66412600  1
  Y  Y6  1  0.23875300  0.71138900  0.16412600  1
  Y  Y7  1  0.28681000  0.70767200  0.83576600  1
  Y  Y8  1  0.72793800  0.70320200  0.91789800  1
  Y  Y9  1  0.72258700  0.70228000  0.58237200  1
  Y  Y10  1  0.77206200  0.70320200  0.41789800  1
  Y  Y11  1  0.77741300  0.70228000  0.08237200  1
  Y  Y12  1  0.22258700  0.29772000  0.91762800  1
  Y  Y13  1  0.27206200  0.29679800  0.08210200  1
  Y  Y14  1  0.22793800  0.29679800  0.58210200  1
  Y  Y15  1  0.27741300  0.29772000  0.41762800  1
  Y  Y16  1  0.76124700  0.28861100  0.83587400  1
  Y  Y17  1  0.71319000  0.29232800  0.16423400  1
  Y  Y18  1  0.73875300  0.28861100  0.33587400  1
  Y  Y19  1  0.78681000  0.29232800  0.66423400  1
  Y  Y20  1  0.28650500  0.27742800  0.25071000  1
  Y  Y21  1  0.21349500  0.27742800  0.75071000  1
  Y  Y22  1  0.75179300  0.28963200  0.50004200  1
  Y  Y23  1  0.74820700  0.28963200  0.00004200  1
  O  O24  1  0.99222900  0.53623800  0.71048300  1
  O  O25  1  0.50777100  0.53623800  0.21048300  1
  O  O26  1  0.49321100  0.53107000  0.12517900  1
  O  O27  1  0.49311700  0.53006800  0.37254100  1
  O  O28  1  0.00678900  0.53107000  0.62517900  1
  O  O29  1  0.00688300  0.53006800  0.87254100  1
  O  O30  1  0.52344600  0.51544500  0.45814100  1
  O  O31  1  0.52428300  0.51584200  0.04178400  1
  O  O32  1  0.97655400  0.51544500  0.95814100  1
  O  O33  1  0.97571700  0.51584200  0.54178400  1
  O  O34  1  0.02428300  0.48415800  0.45821600  1
  O  O35  1  0.47571700  0.48415800  0.95821600  1
  O  O36  1  0.47655400  0.48455500  0.54185900  1
  O  O37  1  0.02344600  0.48455500  0.04185900  1
  O  O38  1  0.99311700  0.46993200  0.12745900  1
  O  O39  1  0.99321100  0.46893000  0.37482100  1
  O  O40  1  0.50688300  0.46993200  0.62745900  1
  O  O41  1  0.50678900  0.46893000  0.87482100  1
  O  O42  1  0.49222900  0.46376200  0.78951700  1
  O  O43  1  0.00777100  0.46376200  0.28951700  1
  F  F44  1  0.58183300  0.97328000  0.96351100  1
  F  F45  1  0.58191800  0.97484500  0.53661000  1
  F  F46  1  0.91816700  0.97328000  0.46351100  1
  F  F47  1  0.91808200  0.97484500  0.03661000  1
  F  F48  1  0.38646800  0.94622500  0.88867300  1
  F  F49  1  0.38121500  0.94321700  0.61057200  1
  F  F50  1  0.11353200  0.94622500  0.38867300  1
  F  F51  1  0.11878500  0.94321700  0.11057200  1
  F  F52  1  0.64211000  0.90835700  0.81627400  1
  F  F53  1  0.63214900  0.90844300  0.68491900  1
  F  F54  1  0.86785100  0.90844300  0.18491900  1
  F  F55  1  0.85789000  0.90835700  0.31627400  1
  F  F56  1  0.34597600  0.89396900  0.74876900  1
  F  F57  1  0.15402400  0.89396900  0.24876900  1
  F  F58  1  0.50814900  0.54779700  0.29171800  1
  F  F59  1  0.99185100  0.54779700  0.79171800  1
  F  F60  1  0.49185100  0.45220300  0.70828200  1
  F  F61  1  0.00814900  0.45220300  0.20828200  1
  F  F62  1  0.65402400  0.10603100  0.25123100  1
  F  F63  1  0.84597600  0.10603100  0.75123100  1
  F  F64  1  0.13214900  0.09155700  0.81508100  1
  F  F65  1  0.35789000  0.09164300  0.18372600  1
  F  F66  1  0.14211000  0.09164300  0.68372600  1
  F  F67  1  0.36785100  0.09155700  0.31508100  1
  F  F68  1  0.61878500  0.05678300  0.38942800  1
  F  F69  1  0.88121500  0.05678300  0.88942800  1
  F  F70  1  0.61353200  0.05377500  0.11132700  1
  F  F71  1  0.88646800  0.05377500  0.61132700  1
  F  F72  1  0.08191800  0.02515500  0.96339000  1
  F  F73  1  0.08183300  0.02672000  0.53648900  1
  F  F74  1  0.41808200  0.02515500  0.46339000  1
  F  F75  1  0.41816700  0.02672000  0.03648900  1
