# generated using pymatgen
data_K2ZnP4(HO2)8
_symmetry_space_group_name_H-M   'P 1'
_cell_length_a   6.91730200
_cell_length_b   7.43535743
_cell_length_c   7.60860800
_cell_angle_alpha   81.00826855
_cell_angle_beta   73.96000094
_cell_angle_gamma   83.54755853
_symmetry_Int_Tables_number   1
_chemical_formula_structural   K2ZnP4(HO2)8
_chemical_formula_sum   'K2 Zn1 P4 H8 O16'
_cell_volume   370.48564688
_cell_formula_units_Z   1
loop_
 _symmetry_equiv_pos_site_id
 _symmetry_equiv_pos_as_xyz
  1  'x, y, z'
loop_
 _atom_site_type_symbol
 _atom_site_label
 _atom_site_symmetry_multiplicity
 _atom_site_fract_x
 _atom_site_fract_y
 _atom_site_fract_z
 _atom_site_occupancy
  K  K0  1  0.10778700  0.73515700  0.29741600  1
  K  K1  1  0.89221300  0.26484300  0.70258400  1
  Zn  Zn2  1  0.50000000  0.50000000  0.50000000  1
  P  P3  1  0.32024800  0.27347700  0.24446900  1
  P  P4  1  0.25245600  0.81261100  0.75674600  1
  P  P5  1  0.74754400  0.18738900  0.24325400  1
  P  P6  1  0.67975200  0.72652300  0.75553100  1
  H  H7  1  0.04805000  0.27452100  0.07501300  1
  H  H8  1  0.24878400  0.04551400  0.46545000  1
  H  H9  1  0.39132400  0.18917900  0.71551400  1
  H  H10  1  0.37683200  0.33176000  0.85526200  1
  H  H11  1  0.62316800  0.66824000  0.14473800  1
  H  H12  1  0.60867600  0.81082100  0.28448600  1
  H  H13  1  0.75121600  0.95448600  0.53455000  1
  H  H14  1  0.95195000  0.72547900  0.92498700  1
  O  O15  1  0.23396200  0.35170800  0.08345500  1
  O  O16  1  0.23314600  0.08184900  0.33243200  1
  O  O17  1  0.29052900  0.39334000  0.39507900  1
  O  O18  1  0.25847900  0.01149100  0.66737200  1
  O  O19  1  0.07434600  0.78811700  0.93712500  1
  O  O20  1  0.25715200  0.67437600  0.62924500  1
  O  O21  1  0.55834800  0.23117300  0.15082800  1
  O  O22  1  0.54459500  0.70460800  0.26608400  1
  O  O23  1  0.45540500  0.29539200  0.73391600  1
  O  O24  1  0.44165200  0.76882700  0.84917200  1
  O  O25  1  0.74284800  0.32562400  0.37075500  1
  O  O26  1  0.92565400  0.21188300  0.06287500  1
  O  O27  1  0.74152100  0.98850900  0.33262800  1
  O  O28  1  0.70947100  0.60666000  0.60492100  1
  O  O29  1  0.76685400  0.91815100  0.66756800  1
  O  O30  1  0.76603800  0.64829200  0.91654500  1
