# generated using pymatgen
data_Sm3Bi5O12
_symmetry_space_group_name_H-M   'P 1'
_cell_length_a   9.62744800
_cell_length_b   9.63233951
_cell_length_c   9.64375439
_cell_angle_alpha   109.48017207
_cell_angle_beta   109.41592825
_cell_angle_gamma   109.40316711
_symmetry_Int_Tables_number   1
_chemical_formula_structural   Sm3Bi5O12
_chemical_formula_sum   'Sm6 Bi10 O24'
_cell_volume   689.41171960
_cell_formula_units_Z   2
loop_
 _symmetry_equiv_pos_site_id
 _symmetry_equiv_pos_as_xyz
  1  'x, y, z'
loop_
 _atom_site_type_symbol
 _atom_site_label
 _atom_site_symmetry_multiplicity
 _atom_site_fract_x
 _atom_site_fract_y
 _atom_site_fract_z
 _atom_site_occupancy
  Sm  Sm0  1  0.03365300  0.78390000  0.75075700  1
  Sm  Sm1  1  0.99855000  0.00078300  0.49984600  1
  Sm  Sm2  1  0.21890500  0.24968000  0.96851700  1
  Sm  Sm3  1  0.49914700  0.99770800  0.99961900  1
  Sm  Sm4  1  0.50194100  0.50107200  0.50061300  1
  Sm  Sm5  1  0.99923400  0.50082300  0.99913300  1
  Bi  Bi6  1  0.27824600  0.75057400  0.52927300  1
  Bi  Bi7  1  0.24834300  0.96936500  0.21714600  1
  Bi  Bi8  1  0.24976000  0.47041600  0.72031900  1
  Bi  Bi9  1  0.52756100  0.27838100  0.74994700  1
  Bi  Bi10  1  0.46961500  0.71840800  0.24977400  1
  Bi  Bi11  1  0.74851400  0.52805100  0.28218000  1
  Bi  Bi12  1  0.75174000  0.02995200  0.78069400  1
  Bi  Bi13  1  0.78086700  0.74823500  0.03030500  1
  Bi  Bi14  1  0.71866200  0.25040800  0.47063200  1
  Bi  Bi15  1  0.97109700  0.22118900  0.24923600  1
  O  O16  1  0.98801800  0.72388900  0.95167500  1
  O  O17  1  0.23513100  0.50696700  0.96450900  1
  O  O18  1  0.25879900  0.73031300  0.77500000  1
  O  O19  1  0.01828900  0.27771100  0.04557200  1
  O  O20  1  0.48523500  0.03214800  0.76326700  1
  O  O21  1  0.23070000  0.46797000  0.45163600  1
  O  O22  1  0.26751700  0.22362700  0.73977400  1
  O  O23  1  0.54982500  0.77188200  0.53355100  1
  O  O24  1  0.53466800  0.54904600  0.77162600  1
  O  O25  1  0.21973500  0.73872500  0.26896400  1
  O  O26  1  0.27270700  0.04127100  0.00355500  1
  O  O27  1  0.76386500  0.48456200  0.03264900  1
  O  O28  1  0.51359400  0.96476300  0.23591700  1
  O  O29  1  0.77153800  0.53552300  0.54740300  1
  O  O30  1  0.72865500  0.77854100  0.26500600  1
  O  O31  1  0.45155200  0.23074600  0.46815600  1
  O  O32  1  0.03394100  0.76639400  0.49343500  1
  O  O33  1  0.46548900  0.44948000  0.22942100  1
  O  O34  1  0.72401100  0.95229000  0.98649800  1
  O  O35  1  0.77799600  0.26301500  0.72895500  1
  O  O36  1  0.96247600  0.99125400  0.73127800  1
  O  O37  1  0.96603600  0.23726100  0.51383800  1
  O  O38  1  0.73561000  0.26887400  0.21964100  1
  O  O39  1  0.04877800  0.01480800  0.28068700  1
