# generated using pymatgen
data_UCo4Sn
_symmetry_space_group_name_H-M   'P 1'
_cell_length_a   4.94047447
_cell_length_b   4.94047447
_cell_length_c   4.94047447
_cell_angle_alpha   60.00000000
_cell_angle_beta   60.00000000
_cell_angle_gamma   60.00000000
_symmetry_Int_Tables_number   1
_chemical_formula_structural   UCo4Sn
_chemical_formula_sum   'U1 Co4 Sn1'
_cell_volume   85.26896282
_cell_formula_units_Z   1
loop_
 _symmetry_equiv_pos_site_id
 _symmetry_equiv_pos_as_xyz
  1  'x, y, z'
loop_
 _atom_site_type_symbol
 _atom_site_label
 _atom_site_symmetry_multiplicity
 _atom_site_fract_x
 _atom_site_fract_y
 _atom_site_fract_z
 _atom_site_occupancy
  U  U0  1  0.00000000  0.00000000  0.00000000  1
  Co  Co1  1  0.62348400  0.12954700  0.62348400  1
  Co  Co2  1  0.62348400  0.62348400  0.62348400  1
  Co  Co3  1  0.12954700  0.62348400  0.62348400  1
  Co  Co4  1  0.62348400  0.62348400  0.12954700  1
  Sn  Sn5  1  0.25000000  0.25000000  0.25000000  1
