# generated using pymatgen
data_Na4Ti5O12
_symmetry_space_group_name_H-M   'P 1'
_cell_length_a   5.95568900
_cell_length_b   6.45297205
_cell_length_c   13.43561113
_cell_angle_alpha   95.87291625
_cell_angle_beta   96.35716592
_cell_angle_gamma   90.00708542
_symmetry_Int_Tables_number   1
_chemical_formula_structural   Na4Ti5O12
_chemical_formula_sum   'Na8 Ti10 O24'
_cell_volume   510.45311263
_cell_formula_units_Z   2
loop_
 _symmetry_equiv_pos_site_id
 _symmetry_equiv_pos_as_xyz
  1  'x, y, z'
loop_
 _atom_site_type_symbol
 _atom_site_label
 _atom_site_symmetry_multiplicity
 _atom_site_fract_x
 _atom_site_fract_y
 _atom_site_fract_z
 _atom_site_occupancy
  Na  Na0  1  0.21982800  0.59237500  0.87975200  1
  Na  Na1  1  0.70084500  0.67452100  0.80346600  1
  Na  Na2  1  0.15555400  0.41078600  0.62390100  1
  Na  Na3  1  0.65413200  0.40013200  0.61456900  1
  Na  Na4  1  0.84444600  0.58921400  0.37609900  1
  Na  Na5  1  0.34586800  0.59986800  0.38543100  1
  Na  Na6  1  0.29915500  0.32547900  0.19653400  1
  Na  Na7  1  0.78017200  0.40762500  0.12024800  1
  Ti  Ti8  1  0.74812800  0.98079000  0.99252200  1
  Ti  Ti9  1  0.25187200  0.01921000  0.00747800  1
  Ti  Ti10  1  0.95103100  0.16497100  0.81110400  1
  Ti  Ti11  1  0.45433900  0.16497400  0.81103800  1
  Ti  Ti12  1  0.64801900  0.90157500  0.58442000  1
  Ti  Ti13  1  0.14665700  0.90235300  0.58868300  1
  Ti  Ti14  1  0.85334300  0.09764700  0.41131700  1
  Ti  Ti15  1  0.35198100  0.09842500  0.41558000  1
  Ti  Ti16  1  0.04896900  0.83502900  0.18889600  1
  Ti  Ti17  1  0.54566100  0.83502600  0.18896200  1
  O  O18  1  0.72733000  0.22546900  0.90957100  1
  O  O19  1  0.22707000  0.22938100  0.90833300  1
  O  O20  1  0.97603200  0.87744000  0.91571700  1
  O  O21  1  0.48187100  0.87744000  0.91570100  1
  O  O22  1  0.93819000  0.40170500  0.76084500  1
  O  O23  1  0.44209000  0.40190800  0.76085900  1
  O  O24  1  0.18231500  0.01460400  0.72946400  1
  O  O25  1  0.68261100  0.00942100  0.73046900  1
  O  O26  1  0.89703000  0.71317200  0.59160600  1
  O  O27  1  0.39835400  0.71358300  0.59040900  1
  O  O28  1  0.88992700  0.11297700  0.56264900  1
  O  O29  1  0.39134200  0.11531500  0.56325300  1
  O  O30  1  0.11007300  0.88702300  0.43735100  1
  O  O31  1  0.60865800  0.88468500  0.43674700  1
  O  O32  1  0.60164600  0.28641700  0.40959100  1
  O  O33  1  0.10297000  0.28682800  0.40839400  1
  O  O34  1  0.31738900  0.99057900  0.26953100  1
  O  O35  1  0.81768500  0.98539600  0.27053600  1
  O  O36  1  0.06181000  0.59829500  0.23915500  1
  O  O37  1  0.55791000  0.59809200  0.23914100  1
  O  O38  1  0.02396800  0.12256000  0.08428300  1
  O  O39  1  0.51812900  0.12256000  0.08429900  1
  O  O40  1  0.77293000  0.77061900  0.09166700  1
  O  O41  1  0.27267000  0.77453100  0.09042900  1
