# generated using pymatgen
data_Ca2SiO4
_symmetry_space_group_name_H-M   'P 1'
_cell_length_a   5.39297600
_cell_length_b   6.97692500
_cell_length_c   9.90511532
_cell_angle_alpha   87.90363601
_cell_angle_beta   90.00000000
_cell_angle_gamma   90.00000000
_symmetry_Int_Tables_number   1
_chemical_formula_structural   Ca2SiO4
_chemical_formula_sum   'Ca8 Si4 O16'
_cell_volume   372.44428553
_cell_formula_units_Z   4
loop_
 _symmetry_equiv_pos_site_id
 _symmetry_equiv_pos_as_xyz
  1  'x, y, z'
loop_
 _atom_site_type_symbol
 _atom_site_label
 _atom_site_symmetry_multiplicity
 _atom_site_fract_x
 _atom_site_fract_y
 _atom_site_fract_z
 _atom_site_occupancy
  Ca  Ca0  1  0.00239600  0.79165700  0.15765600  1
  Ca  Ca1  1  0.99760400  0.20834300  0.84234400  1
  Ca  Ca2  1  0.00000000  0.50000000  0.50000000  1
  Ca  Ca3  1  0.00000000  0.00000000  0.50000000  1
  Ca  Ca4  1  0.50239600  0.20834300  0.34234400  1
  Ca  Ca5  1  0.49760400  0.79165700  0.65765600  1
  Ca  Ca6  1  0.50000000  0.50000000  0.00000000  1
  Ca  Ca7  1  0.50000000  0.00000000  0.00000000  1
  Si  Si8  1  0.00043300  0.27946400  0.17167300  1
  Si  Si9  1  0.99956700  0.72053600  0.82832700  1
  Si  Si10  1  0.49956700  0.27946400  0.67167300  1
  Si  Si11  1  0.50043300  0.72053600  0.32832700  1
  O  O12  1  0.95201700  0.23896700  0.33663100  1
  O  O13  1  0.04798300  0.76103300  0.66336900  1
  O  O14  1  0.11850700  0.51235400  0.87183700  1
  O  O15  1  0.14948400  0.89000400  0.90765800  1
  O  O16  1  0.29761500  0.24821100  0.13235800  1
  O  O17  1  0.35051600  0.89000400  0.40765800  1
  O  O18  1  0.20238500  0.24821100  0.63235800  1
  O  O19  1  0.38149300  0.51235400  0.37183700  1
  O  O20  1  0.45201700  0.76103300  0.16336900  1
  O  O21  1  0.54798300  0.23896700  0.83663100  1
  O  O22  1  0.61850700  0.48764600  0.62816300  1
  O  O23  1  0.79761500  0.75178900  0.36764200  1
  O  O24  1  0.64948400  0.10999600  0.59234200  1
  O  O25  1  0.70238500  0.75178900  0.86764200  1
  O  O26  1  0.85051600  0.10999600  0.09234200  1
  O  O27  1  0.88149300  0.48764600  0.12816300  1
