# generated using pymatgen
data_Li2AgF5
_symmetry_space_group_name_H-M   'P 1'
_cell_length_a   5.59856528
_cell_length_b   5.59856528
_cell_length_c   9.76911500
_cell_angle_alpha   90.00000000
_cell_angle_beta   90.00000000
_cell_angle_gamma   132.90929470
_symmetry_Int_Tables_number   1
_chemical_formula_structural   Li2AgF5
_chemical_formula_sum   'Li4 Ag2 F10'
_cell_volume   224.27264141
_cell_formula_units_Z   2
loop_
 _symmetry_equiv_pos_site_id
 _symmetry_equiv_pos_as_xyz
  1  'x, y, z'
loop_
 _atom_site_type_symbol
 _atom_site_label
 _atom_site_symmetry_multiplicity
 _atom_site_fract_x
 _atom_site_fract_y
 _atom_site_fract_z
 _atom_site_occupancy
  Li  Li0  1  0.86044400  0.13955600  0.42041500  1
  Li  Li1  1  0.86044400  0.13955600  0.07958500  1
  Li  Li2  1  0.13955600  0.86044400  0.92041500  1
  Li  Li3  1  0.13955600  0.86044400  0.57958500  1
  Ag  Ag4  1  0.80918900  0.19081100  0.75000000  1
  Ag  Ag5  1  0.19081100  0.80918900  0.25000000  1
  F  F6  1  0.68448300  0.31551700  0.90991600  1
  F  F7  1  0.68448300  0.31551700  0.59008400  1
  F  F8  1  0.94324100  0.05675900  0.89429800  1
  F  F9  1  0.94324100  0.05675900  0.60570200  1
  F  F10  1  0.78064900  0.21935100  0.25000000  1
  F  F11  1  0.21935100  0.78064900  0.75000000  1
  F  F12  1  0.05675900  0.94324100  0.39429800  1
  F  F13  1  0.05675900  0.94324100  0.10570200  1
  F  F14  1  0.31551700  0.68448300  0.09008400  1
  F  F15  1  0.31551700  0.68448300  0.40991600  1
