# generated using pymatgen
data_H6C2N4O
_symmetry_space_group_name_H-M   'P 1'
_cell_length_a   11.31905400
_cell_length_b   3.93840300
_cell_length_c   11.09859337
_cell_angle_alpha   87.53336438
_cell_angle_beta   90.00000000
_cell_angle_gamma   90.00000000
_symmetry_Int_Tables_number   1
_chemical_formula_structural   H6C2N4O
_chemical_formula_sum   'H24 C8 N16 O4'
_cell_volume   494.30572970
_cell_formula_units_Z   4
loop_
 _symmetry_equiv_pos_site_id
 _symmetry_equiv_pos_as_xyz
  1  'x, y, z'
loop_
 _atom_site_type_symbol
 _atom_site_label
 _atom_site_symmetry_multiplicity
 _atom_site_fract_x
 _atom_site_fract_y
 _atom_site_fract_z
 _atom_site_occupancy
  H  H0  1  0.62129000  0.81430100  0.80114400  1
  H  H1  1  0.49872900  0.76601700  0.89246000  1
  H  H2  1  0.07073300  0.74222400  0.91070000  1
  H  H3  1  0.87871000  0.81430100  0.30114400  1
  H  H4  1  0.00127100  0.76601700  0.39246000  1
  H  H5  1  0.42926700  0.74222400  0.41070000  1
  H  H6  1  0.35379900  0.61184200  0.54258900  1
  H  H7  1  0.61407100  0.49128000  0.91130700  1
  H  H8  1  0.14620100  0.61184200  0.04258900  1
  H  H9  1  0.52504400  0.48730100  0.78703600  1
  H  H10  1  0.02504400  0.51269900  0.71296400  1
  H  H11  1  0.88592900  0.49128000  0.41130700  1
  H  H12  1  0.11407100  0.50872000  0.58869300  1
  H  H13  1  0.97495600  0.48730100  0.28703600  1
  H  H14  1  0.47495600  0.51269900  0.21296400  1
  H  H15  1  0.85379900  0.38815800  0.95741100  1
  H  H16  1  0.38592900  0.50872000  0.08869300  1
  H  H17  1  0.64620100  0.38815800  0.45741100  1
  H  H18  1  0.57073300  0.25777600  0.58930000  1
  H  H19  1  0.99872900  0.23398300  0.60754000  1
  H  H20  1  0.12129000  0.18569900  0.69885600  1
  H  H21  1  0.92926700  0.25777600  0.08930000  1
  H  H22  1  0.50127100  0.23398300  0.10754000  1
  H  H23  1  0.37871000  0.18569900  0.19885600  1
  C  C24  1  0.83763300  0.91105400  0.75568900  1
  C  C25  1  0.66236700  0.91105400  0.25568900  1
  C  C26  1  0.25068800  0.82490700  0.90886700  1
  C  C27  1  0.24931200  0.82490700  0.40886700  1
  C  C28  1  0.75068800  0.17509300  0.59113300  1
  C  C29  1  0.74931200  0.17509300  0.09113300  1
  C  C30  1  0.33763300  0.08894600  0.74431100  1
  C  C31  1  0.16236700  0.08894600  0.24431100  1
  N  N32  1  0.24281300  0.95921500  0.79212000  1
  N  N33  1  0.25718700  0.95921500  0.29212000  1
  N  N34  1  0.91988200  0.78300800  0.80659600  1
  N  N35  1  0.14858200  0.70531200  0.95591900  1
  N  N36  1  0.58011800  0.78300800  0.30659600  1
  N  N37  1  0.35141800  0.70531200  0.45591900  1
  N  N38  1  0.56617800  0.64198500  0.84834100  1
  N  N39  1  0.93382200  0.64198500  0.34834100  1
  N  N40  1  0.06617800  0.35801500  0.65165900  1
  N  N41  1  0.43382200  0.35801500  0.15165900  1
  N  N42  1  0.64858200  0.29468800  0.54408100  1
  N  N43  1  0.41988200  0.21699200  0.69340400  1
  N  N44  1  0.85141800  0.29468800  0.04408100  1
  N  N45  1  0.08011800  0.21699200  0.19340400  1
  N  N46  1  0.74281300  0.04078500  0.70788000  1
  N  N47  1  0.75718700  0.04078500  0.20788000  1
  O  O48  1  0.34698200  0.81001400  0.96836400  1
  O  O49  1  0.15301800  0.81001400  0.46836400  1
  O  O50  1  0.84698200  0.18998600  0.53163600  1
  O  O51  1  0.65301800  0.18998600  0.03163600  1
