# generated using pymatgen
data_Sb8Cl2O11
_symmetry_space_group_name_H-M   'P 1'
_cell_length_a   4.20587300
_cell_length_b   11.17833500
_cell_length_c   18.05585669
_cell_angle_alpha   82.72807631
_cell_angle_beta   90.00000000
_cell_angle_gamma   90.00000000
_symmetry_Int_Tables_number   1
_chemical_formula_structural   Sb8Cl2O11
_chemical_formula_sum   'Sb16 Cl4 O22'
_cell_volume   842.06194452
_cell_formula_units_Z   2
loop_
 _symmetry_equiv_pos_site_id
 _symmetry_equiv_pos_as_xyz
  1  'x, y, z'
loop_
 _atom_site_type_symbol
 _atom_site_label
 _atom_site_symmetry_multiplicity
 _atom_site_fract_x
 _atom_site_fract_y
 _atom_site_fract_z
 _atom_site_occupancy
  Sb  Sb0  1  0.69338900  0.68671700  0.01922300  1
  Sb  Sb1  1  0.18268200  0.94567900  0.92798300  1
  Sb  Sb2  1  0.97728600  0.13324400  0.74159600  1
  Sb  Sb3  1  0.47728600  0.86675600  0.75840400  1
  Sb  Sb4  1  0.45283000  0.34877000  0.78558600  1
  Sb  Sb5  1  0.95283000  0.65123000  0.71441400  1
  Sb  Sb6  1  0.68268200  0.05432100  0.57201700  1
  Sb  Sb7  1  0.19338900  0.31328300  0.48077700  1
  Sb  Sb8  1  0.80661100  0.68671700  0.51922300  1
  Sb  Sb9  1  0.31731800  0.94567900  0.42798300  1
  Sb  Sb10  1  0.04717000  0.34877000  0.28558600  1
  Sb  Sb11  1  0.54717000  0.65123000  0.21441400  1
  Sb  Sb12  1  0.52271400  0.13324400  0.24159600  1
  Sb  Sb13  1  0.02271400  0.86675600  0.25840400  1
  Sb  Sb14  1  0.81731800  0.05432100  0.07201700  1
  Sb  Sb15  1  0.30661100  0.31328300  0.98077700  1
  Cl  Cl16  1  0.99620500  0.48589700  0.90520600  1
  Cl  Cl17  1  0.49620500  0.51410300  0.59479400  1
  Cl  Cl18  1  0.50379500  0.48589700  0.40520600  1
  Cl  Cl19  1  0.00379500  0.51410300  0.09479400  1
  O  O20  1  0.07645200  0.79247500  0.99417000  1
  O  O21  1  0.50090800  0.86020600  0.87047200  1
  O  O22  1  0.46221700  0.19182600  0.73697500  1
  O  O23  1  0.50000000  0.00000000  0.00000000  1
  O  O24  1  0.41274700  0.24994800  0.88621800  1
  O  O25  1  0.45846300  0.69608500  0.73493000  1
  O  O26  1  0.96221700  0.80817400  0.76302500  1
  O  O27  1  0.00090800  0.13979400  0.62952800  1
  O  O28  1  0.57645200  0.20752500  0.50583000  1
  O  O29  1  0.95846300  0.30391500  0.76507000  1
  O  O30  1  0.91274700  0.75005200  0.61378200  1
  O  O31  1  0.00000000  0.00000000  0.50000000  1
  O  O32  1  0.08725300  0.24994800  0.38621800  1
  O  O33  1  0.04153700  0.69608500  0.23493000  1
  O  O34  1  0.42354800  0.79247500  0.49417000  1
  O  O35  1  0.99909200  0.86020600  0.37047200  1
  O  O36  1  0.03778300  0.19182600  0.23697500  1
  O  O37  1  0.54153700  0.30391500  0.26507000  1
  O  O38  1  0.58725300  0.75005200  0.11378200  1
  O  O39  1  0.53778300  0.80817400  0.26302500  1
  O  O40  1  0.49909200  0.13979400  0.12952800  1
  O  O41  1  0.92354800  0.20752500  0.00583000  1
