# generated using pymatgen
data_Ba8In6O17
_symmetry_space_group_name_H-M   'P 1'
_cell_length_a   6.19972400
_cell_length_b   6.23747365
_cell_length_c   15.15140551
_cell_angle_alpha   101.84627261
_cell_angle_beta   90.02469730
_cell_angle_gamma   90.04168487
_symmetry_Int_Tables_number   1
_chemical_formula_structural   Ba8In6O17
_chemical_formula_sum   'Ba8 In6 O17'
_cell_volume   573.43506895
_cell_formula_units_Z   1
loop_
 _symmetry_equiv_pos_site_id
 _symmetry_equiv_pos_as_xyz
  1  'x, y, z'
loop_
 _atom_site_type_symbol
 _atom_site_label
 _atom_site_symmetry_multiplicity
 _atom_site_fract_x
 _atom_site_fract_y
 _atom_site_fract_z
 _atom_site_occupancy
  Ba  Ba0  1  0.75775800  0.19146300  0.86355800  1
  Ba  Ba1  1  0.73331800  0.03576200  0.58950600  1
  Ba  Ba2  1  0.26668200  0.96423800  0.41049400  1
  Ba  Ba3  1  0.24224200  0.80853700  0.13644200  1
  Ba  Ba4  1  0.73184100  0.44656100  0.41108400  1
  Ba  Ba5  1  0.75719000  0.32806800  0.13715100  1
  Ba  Ba6  1  0.24281000  0.67193200  0.86284900  1
  Ba  Ba7  1  0.26815900  0.55343900  0.58891600  1
  In  In8  1  0.77521800  0.86915900  0.28137800  1
  In  In9  1  0.73403300  0.76525800  0.99991100  1
  In  In10  1  0.26596700  0.23474200  0.00008900  1
  In  In11  1  0.22478200  0.13084100  0.71862200  1
  In  In12  1  0.77768500  0.58631200  0.71867900  1
  In  In13  1  0.22231500  0.41368800  0.28132100  1
  O  O14  1  0.50000000  0.50000000  0.00000000  1
  O  O15  1  0.69709600  0.02722200  0.41548800  1
  O  O16  1  0.50466900  0.35432300  0.72150200  1
  O  O17  1  0.80687100  0.75192300  0.13599500  1
  O  O18  1  0.19312900  0.24807700  0.86400500  1
  O  O19  1  0.00273800  0.34101500  0.67986900  1
  O  O20  1  0.30290400  0.97277800  0.58451200  1
  O  O21  1  0.80509400  0.61781400  0.86333600  1
  O  O22  1  0.49533100  0.64567700  0.27849800  1
  O  O23  1  0.50000000  0.00000000  0.00000000  1
  O  O24  1  0.69598600  0.61207700  0.58510900  1
  O  O25  1  0.00152100  0.86728000  0.73476800  1
  O  O26  1  0.00000000  0.00000000  0.00000000  1
  O  O27  1  0.99726200  0.65898500  0.32013100  1
  O  O28  1  0.30401400  0.38792300  0.41489100  1
  O  O29  1  0.19490600  0.38218600  0.13666400  1
  O  O30  1  0.99847900  0.13272000  0.26523200  1
