# generated using pymatgen
data_NdTa3O9
_symmetry_space_group_name_H-M   'P 1'
_cell_length_a   5.58032800
_cell_length_b   8.82627681
_cell_length_c   8.88446855
_cell_angle_alpha   101.50670944
_cell_angle_beta   108.26454604
_cell_angle_gamma   108.40072671
_symmetry_Int_Tables_number   1
_chemical_formula_structural   NdTa3O9
_chemical_formula_sum   'Nd2 Ta6 O18'
_cell_volume   372.04853608
_cell_formula_units_Z   2
loop_
 _symmetry_equiv_pos_site_id
 _symmetry_equiv_pos_as_xyz
  1  'x, y, z'
loop_
 _atom_site_type_symbol
 _atom_site_label
 _atom_site_symmetry_multiplicity
 _atom_site_fract_x
 _atom_site_fract_y
 _atom_site_fract_z
 _atom_site_occupancy
  Nd  Nd0  1  0.32622200  0.66308600  0.00233900  1
  Nd  Nd1  1  0.67377800  0.33691400  0.99766100  1
  Ta  Ta2  1  0.33372100  0.91792700  0.75029700  1
  Ta  Ta3  1  0.01206300  0.76207500  0.26436200  1
  Ta  Ta4  1  0.33477300  0.41264100  0.25858200  1
  Ta  Ta5  1  0.66627900  0.08207300  0.24970300  1
  Ta  Ta6  1  0.98793700  0.23792500  0.73563800  1
  Ta  Ta7  1  0.66522700  0.58735900  0.74141800  1
  O  O8  1  0.32591600  0.90506000  0.23258200  1
  O  O9  1  0.50000000  0.00000000  0.00000000  1
  O  O10  1  0.80122100  0.89974400  0.23020600  1
  O  O11  1  0.01947400  0.75072600  0.76917900  1
  O  O12  1  0.50000000  0.50000000  0.50000000  1
  O  O13  1  0.16720200  0.83441500  0.50322600  1
  O  O14  1  0.64876400  0.57367900  0.21926100  1
  O  O15  1  0.83820200  0.65099700  0.00028800  1
  O  O16  1  0.16179800  0.34900300  0.99971200  1
  O  O17  1  0.85417000  0.42594500  0.77290500  1
  O  O18  1  0.50497800  0.25359500  0.23131100  1
  O  O19  1  0.49502200  0.74640500  0.76868900  1
  O  O20  1  0.14583000  0.57405500  0.22709500  1
  O  O21  1  0.83279800  0.16558500  0.49677400  1
  O  O22  1  0.98052600  0.24927400  0.23082100  1
  O  O23  1  0.35123600  0.42632100  0.78073900  1
  O  O24  1  0.19877900  0.10025600  0.76979400  1
  O  O25  1  0.67408400  0.09494000  0.76741800  1
