# generated using pymatgen
data_CaGd4O7
_symmetry_space_group_name_H-M   'P 1'
_cell_length_a   7.21580000
_cell_length_b   9.20806876
_cell_length_c   11.63720192
_cell_angle_alpha   107.49542045
_cell_angle_beta   99.01404039
_cell_angle_gamma   89.94823008
_symmetry_Int_Tables_number   1
_chemical_formula_structural   CaGd4O7
_chemical_formula_sum   'Ca4 Gd16 O28'
_cell_volume   727.46510693
_cell_formula_units_Z   4
loop_
 _symmetry_equiv_pos_site_id
 _symmetry_equiv_pos_as_xyz
  1  'x, y, z'
loop_
 _atom_site_type_symbol
 _atom_site_label
 _atom_site_symmetry_multiplicity
 _atom_site_fract_x
 _atom_site_fract_y
 _atom_site_fract_z
 _atom_site_occupancy
  Ca  Ca0  1  0.28982600  0.07030000  0.16007200  1
  Ca  Ca1  1  0.11015600  0.32419500  0.43639100  1
  Ca  Ca2  1  0.88984400  0.67580500  0.56360900  1
  Ca  Ca3  1  0.71017400  0.92970000  0.83992800  1
  Gd  Gd4  1  0.01920900  0.71744200  0.07088800  1
  Gd  Gd5  1  0.51606500  0.71588700  0.06978200  1
  Gd  Gd6  1  0.81230900  0.49931700  0.24055000  1
  Gd  Gd7  1  0.30860500  0.49624200  0.23942100  1
  Gd  Gd8  1  0.78910000  0.06550100  0.15546800  1
  Gd  Gd9  1  0.09273700  0.86988800  0.37543500  1
  Gd  Gd10  1  0.59423800  0.86927900  0.37318200  1
  Gd  Gd11  1  0.60885800  0.32629200  0.43745400  1
  Gd  Gd12  1  0.39114200  0.67370800  0.56254600  1
  Gd  Gd13  1  0.40576200  0.13072100  0.62681800  1
  Gd  Gd14  1  0.90726300  0.13011200  0.62456500  1
  Gd  Gd15  1  0.21090000  0.93449900  0.84453200  1
  Gd  Gd16  1  0.18769100  0.50068300  0.75945000  1
  Gd  Gd17  1  0.69139500  0.50375800  0.76057900  1
  Gd  Gd18  1  0.98079100  0.28255800  0.92911200  1
  Gd  Gd19  1  0.48393500  0.28411300  0.93021800  1
  O  O20  1  0.25050800  0.17703600  0.00061700  1
  O  O21  1  0.75202300  0.18101500  0.00649100  1
  O  O22  1  0.05000400  0.97545500  0.21688400  1
  O  O23  1  0.55925100  0.97842600  0.21846300  1
  O  O24  1  0.02681500  0.47455700  0.11443100  1
  O  O25  1  0.53085400  0.47543500  0.11506900  1
  O  O26  1  0.80620300  0.73759900  0.23024900  1
  O  O27  1  0.30874300  0.73771900  0.22723600  1
  O  O28  1  0.33459800  0.29386300  0.31216800  1
  O  O29  1  0.82191900  0.29064600  0.30945200  1
  O  O30  1  0.10795900  0.58735000  0.39902500  1
  O  O31  1  0.59290800  0.58003500  0.40248300  1
  O  O32  1  0.87262100  0.88363300  0.49778500  1
  O  O33  1  0.37745800  0.88107800  0.50070000  1
  O  O34  1  0.62254200  0.11892200  0.49930000  1
  O  O35  1  0.12737900  0.11636700  0.50221500  1
  O  O36  1  0.89204100  0.41265000  0.60097500  1
  O  O37  1  0.40709200  0.41996500  0.59751700  1
  O  O38  1  0.17808100  0.70935400  0.69054800  1
  O  O39  1  0.66540200  0.70613700  0.68783200  1
  O  O40  1  0.69125700  0.26228100  0.77276400  1
  O  O41  1  0.19379700  0.26240100  0.76975100  1
  O  O42  1  0.97318500  0.52544300  0.88556900  1
  O  O43  1  0.46914600  0.52456500  0.88493100  1
  O  O44  1  0.94999600  0.02454400  0.78311600  1
  O  O45  1  0.44074900  0.02157400  0.78153700  1
  O  O46  1  0.74949200  0.82296400  0.99938300  1
  O  O47  1  0.24797700  0.81898500  0.99350900  1
