# generated using pymatgen
data_YTa3O9
_symmetry_space_group_name_H-M   'P 1'
_cell_length_a   5.56215800
_cell_length_b   8.82358703
_cell_length_c   8.86092124
_cell_angle_alpha   66.50666270
_cell_angle_beta   71.71290841
_cell_angle_gamma   71.65067260
_symmetry_Int_Tables_number   1
_chemical_formula_structural   YTa3O9
_chemical_formula_sum   'Y2 Ta6 O18'
_cell_volume   369.58952706
_cell_formula_units_Z   2
loop_
 _symmetry_equiv_pos_site_id
 _symmetry_equiv_pos_as_xyz
  1  'x, y, z'
loop_
 _atom_site_type_symbol
 _atom_site_label
 _atom_site_symmetry_multiplicity
 _atom_site_fract_x
 _atom_site_fract_y
 _atom_site_fract_z
 _atom_site_occupancy
  Y  Y0  1  0.68418800  0.64064100  0.99885300  1
  Y  Y1  1  0.33562500  0.35654000  0.00280400  1
  Ta  Ta2  1  0.92494200  0.40958200  0.74173700  1
  Ta  Ta3  1  0.41825200  0.91920900  0.24702900  1
  Ta  Ta4  1  0.75065100  0.23691300  0.26696600  1
  Ta  Ta5  1  0.58042100  0.08093200  0.75521200  1
  Ta  Ta6  1  0.25023400  0.76364500  0.73505800  1
  Ta  Ta7  1  0.07634600  0.59209700  0.25699000  1
  O  O8  1  0.42014900  0.90051600  0.77341500  1
  O  O9  1  0.99942800  0.50085200  0.50011200  1
  O  O10  1  0.49827000  0.00295400  0.00072800  1
  O  O11  1  0.80975300  0.35608500  0.00050000  1
  O  O12  1  0.90096900  0.89887500  0.77172900  1
  O  O13  1  0.42330000  0.42504800  0.22182700  1
  O  O14  1  0.24273600  0.24787800  0.77213700  1
  O  O15  1  0.27216800  0.74925800  0.22782800  1
  O  O16  1  0.07480200  0.57132700  0.78055900  1
  O  O17  1  0.17454200  0.64359300  0.99981600  1
  O  O18  1  0.66462800  0.16575000  0.50570300  1
  O  O19  1  0.33271800  0.83316100  0.49650400  1
  O  O20  1  0.74959100  0.74937200  0.22701600  1
  O  O21  1  0.57273400  0.57642400  0.77931900  1
  O  O22  1  0.71972800  0.25458200  0.77246000  1
  O  O23  1  0.09612600  0.10090500  0.22907200  1
  O  O24  1  0.92213900  0.42749300  0.21939900  1
  O  O25  1  0.57578100  0.09873100  0.23152600  1
