# generated using pymatgen
data_P2H12N7Cl
_symmetry_space_group_name_H-M   'P 1'
_cell_length_a   5.92605414
_cell_length_b   7.47476634
_cell_length_c   11.04930083
_cell_angle_alpha   70.20058826
_cell_angle_beta   75.73440483
_cell_angle_gamma   88.82672458
_symmetry_Int_Tables_number   1
_chemical_formula_structural   P2H12N7Cl
_chemical_formula_sum   'P4 H24 N14 Cl2'
_cell_volume   445.23851085
_cell_formula_units_Z   2
loop_
 _symmetry_equiv_pos_site_id
 _symmetry_equiv_pos_as_xyz
  1  'x, y, z'
loop_
 _atom_site_type_symbol
 _atom_site_label
 _atom_site_symmetry_multiplicity
 _atom_site_fract_x
 _atom_site_fract_y
 _atom_site_fract_z
 _atom_site_occupancy
  P  P0  1  0.23274930  0.26124723  0.43007198  1
  P  P1  1  0.40073077  0.15280600  0.19370291  1
  P  P2  1  0.59926923  0.84719400  0.80629709  1
  P  P3  1  0.76725070  0.73875277  0.56992802  1
  H  H4  1  0.21478984  0.31029401  0.03122602  1
  H  H5  1  0.18763268  0.42324557  0.14402205  1
  H  H6  1  0.18252427  0.90987073  0.17269404  1
  H  H7  1  0.15404078  0.83460796  0.50272939  1
  H  H8  1  0.09717175  0.62026131  0.63257445  1
  H  H9  1  0.25095390  0.58037663  0.40072812  1
  H  H10  1  0.19516256  0.20351221  0.65402190  1
  H  H11  1  0.47527289  0.87151935  0.15435720  1
  H  H12  1  0.21331887  0.75483538  0.82850555  1
  H  H13  1  0.38483545  0.05824627  0.59491768  1
  H  H14  1  0.50843572  0.51964699  0.31424987  1
  H  H15  1  0.23597430  0.80731288  0.96383270  1
  H  H16  1  0.76402570  0.19268712  0.03616730  1
  H  H17  1  0.49156428  0.48035301  0.68575013  1
  H  H18  1  0.61516455  0.94175373  0.40508232  1
  H  H19  1  0.78668113  0.24516462  0.17149445  1
  H  H20  1  0.52472711  0.12848065  0.84564280  1
  H  H21  1  0.80483744  0.79648779  0.34597810  1
  H  H22  1  0.74904610  0.41962337  0.59927188  1
  H  H23  1  0.90282825  0.37973869  0.36742555  1
  H  H24  1  0.84595922  0.16539204  0.49727061  1
  H  H25  1  0.81747573  0.09012927  0.82730596  1
  H  H26  1  0.81236732  0.57675443  0.85597795  1
  H  H27  1  0.78521016  0.68970599  0.96877398  1
  N  N28  1  0.21687826  0.29801049  0.12628668  1
  N  N29  1  0.05093235  0.71033635  0.55035665  1
  N  N30  1  0.34736185  0.96347112  0.15949741  1
  N  N31  1  0.33405466  0.48546093  0.35959230  1
  N  N32  1  0.24647421  0.14126923  0.58263535  1
  N  N33  1  0.36686867  0.13639158  0.34589183  1
  N  N34  1  0.31777060  0.80470590  0.87204129  1
  N  N35  1  0.68222940  0.19529410  0.12795871  1
  N  N36  1  0.63313133  0.86360842  0.65410817  1
  N  N37  1  0.75352579  0.85873077  0.41736465  1
  N  N38  1  0.66594534  0.51453907  0.64040770  1
  N  N39  1  0.65263815  0.03652888  0.84050259  1
  N  N40  1  0.94906765  0.28966365  0.44964335  1
  N  N41  1  0.78312174  0.70198951  0.87371332  1
  Cl  Cl42  1  0.12907191  0.33671776  0.82257615  1
  Cl  Cl43  1  0.87092809  0.66328224  0.17742385  1
