# generated using pymatgen
data_CaAl2(SiO4)2
_symmetry_space_group_name_H-M   'P 1'
_cell_length_a   8.23906900
_cell_length_b   8.86444889
_cell_length_c   9.57458319
_cell_angle_alpha   89.58405486
_cell_angle_beta   97.58818049
_cell_angle_gamma   95.34367273
_symmetry_Int_Tables_number   1
_chemical_formula_structural   CaAl2(SiO4)2
_chemical_formula_sum   'Ca4 Al8 Si8 O32'
_cell_volume   690.13267163
_cell_formula_units_Z   4
loop_
 _symmetry_equiv_pos_site_id
 _symmetry_equiv_pos_as_xyz
  1  'x, y, z'
loop_
 _atom_site_type_symbol
 _atom_site_label
 _atom_site_symmetry_multiplicity
 _atom_site_fract_x
 _atom_site_fract_y
 _atom_site_fract_z
 _atom_site_occupancy
  Ca  Ca0  1  0.23179600  0.92155000  0.99910600  1
  Ca  Ca1  1  0.30962800  0.58121300  0.57611400  1
  Ca  Ca2  1  0.69037200  0.41878700  0.42388600  1
  Ca  Ca3  1  0.76820400  0.07845000  0.00089400  1
  Al  Al4  1  0.99904800  0.56035000  0.81084900  1
  Al  Al5  1  0.11945600  0.93226600  0.30960900  1
  Al  Al6  1  0.38857200  0.22686500  0.54832600  1
  Al  Al7  1  0.52447000  0.72142400  0.94454600  1
  Al  Al8  1  0.47553000  0.27857600  0.05545400  1
  Al  Al9  1  0.61142800  0.77313500  0.45167400  1
  Al  Al10  1  0.88054400  0.06773400  0.69039100  1
  Al  Al11  1  0.00095200  0.43965000  0.18915100  1
  Si  Si12  1  0.09594300  0.26201800  0.94485000  1
  Si  Si13  1  0.02420200  0.24453900  0.45332000  1
  Si  Si14  1  0.49940300  0.94469500  0.70606600  1
  Si  Si15  1  0.39344500  0.56980300  0.20605600  1
  Si  Si16  1  0.60655500  0.43019700  0.79394400  1
  Si  Si17  1  0.50059700  0.05530500  0.29393400  1
  Si  Si18  1  0.97579800  0.75546100  0.54668000  1
  Si  Si19  1  0.90405700  0.73798200  0.05515000  1
  O  O20  1  0.02360800  0.71519100  0.93232100  1
  O  O21  1  0.99637300  0.11269000  0.85861600  1
  O  O22  1  0.06739700  0.63318700  0.65398100  1
  O  O23  1  0.12664000  0.41623500  0.85854700  1
  O  O24  1  0.10406200  0.78202700  0.42995000  1
  O  O25  1  0.05432200  0.09526000  0.37045100  1
  O  O26  1  0.20780200  0.32398200  0.52094900  1
  O  O27  1  0.20522900  0.51124200  0.21508800  1
  O  O28  1  0.31615600  0.96727600  0.25214600  1
  O  O29  1  0.43349700  0.87595000  0.85258000  1
  O  O30  1  0.36831200  0.05850200  0.63862900  1
  O  O31  1  0.27194900  0.19880000  0.00759200  1
  O  O32  1  0.49471400  0.56570200  0.82976100  1
  O  O33  1  0.41008800  0.70523300  0.08849600  1
  O  O34  1  0.50862400  0.79941200  0.60106100  1
  O  O35  1  0.47520000  0.62076700  0.36961900  1
  O  O36  1  0.52480000  0.37923300  0.63038100  1
  O  O37  1  0.49137600  0.20058800  0.39893900  1
  O  O38  1  0.58991200  0.29476700  0.91150400  1
  O  O39  1  0.50528600  0.43429800  0.17023900  1
  O  O40  1  0.72805100  0.80120000  0.99240800  1
  O  O41  1  0.63168800  0.94149800  0.36137100  1
  O  O42  1  0.56650300  0.12405000  0.14742000  1
  O  O43  1  0.68384400  0.03272400  0.74785400  1
  O  O44  1  0.79477100  0.48875800  0.78491200  1
  O  O45  1  0.79219800  0.67601800  0.47905100  1
  O  O46  1  0.94567800  0.90474000  0.62954900  1
  O  O47  1  0.89593800  0.21797300  0.57005000  1
  O  O48  1  0.87336000  0.58376500  0.14145300  1
  O  O49  1  0.93260300  0.36681300  0.34601900  1
  O  O50  1  0.00362700  0.88731000  0.14138400  1
  O  O51  1  0.97639200  0.28480900  0.06767900  1
