# generated using pymatgen
data_Li2Mg3Ti6O16
_symmetry_space_group_name_H-M   'P 1'
_cell_length_a   8.47408300
_cell_length_b   8.47816200
_cell_length_c   8.48316368
_cell_angle_alpha   89.73802269
_cell_angle_beta   90.00000000
_cell_angle_gamma   90.00000000
_symmetry_Int_Tables_number   1
_chemical_formula_structural   Li2Mg3Ti6O16
_chemical_formula_sum   'Li4 Mg6 Ti12 O32'
_cell_volume   609.46354137
_cell_formula_units_Z   2
loop_
 _symmetry_equiv_pos_site_id
 _symmetry_equiv_pos_as_xyz
  1  'x, y, z'
loop_
 _atom_site_type_symbol
 _atom_site_label
 _atom_site_symmetry_multiplicity
 _atom_site_fract_x
 _atom_site_fract_y
 _atom_site_fract_z
 _atom_site_occupancy
  Li  Li0  1  0.62438400  0.87516600  0.62604300  1
  Li  Li1  1  0.12438400  0.12483400  0.37395700  1
  Li  Li2  1  0.50233000  0.00461200  0.24822200  1
  Li  Li3  1  0.00233000  0.99538800  0.75177800  1
  Mg  Mg4  1  0.49502000  0.49837500  0.74395600  1
  Mg  Mg5  1  0.24735700  0.74977200  0.50564700  1
  Mg  Mg6  1  0.74735700  0.25022800  0.49435300  1
  Mg  Mg7  1  0.99502000  0.50162500  0.25604400  1
  Mg  Mg8  1  0.75532200  0.75778100  0.00208700  1
  Mg  Mg9  1  0.25532200  0.24221900  0.99791300  1
  Ti  Ti10  1  0.86839300  0.62516400  0.63393600  1
  Ti  Ti11  1  0.11536200  0.36403200  0.63178200  1
  Ti  Ti12  1  0.37301800  0.11735800  0.61591700  1
  Ti  Ti13  1  0.87301800  0.88264200  0.38408300  1
  Ti  Ti14  1  0.61536200  0.63596800  0.36821800  1
  Ti  Ti15  1  0.36839300  0.37483600  0.36606400  1
  Ti  Ti16  1  0.13624700  0.87343100  0.13028400  1
  Ti  Ti17  1  0.87966700  0.13177100  0.11681200  1
  Ti  Ti18  1  0.62504600  0.38077700  0.11574600  1
  Ti  Ti19  1  0.12504600  0.61922300  0.88425400  1
  Ti  Ti20  1  0.37966700  0.86822900  0.88318800  1
  Ti  Ti21  1  0.63624700  0.12656900  0.86971600  1
  O  O22  1  0.61100600  0.13087300  0.64400700  1
  O  O23  1  0.37230100  0.89539000  0.63885200  1
  O  O24  1  0.11033600  0.61158100  0.63770600  1
  O  O25  1  0.14034000  0.14501600  0.62776600  1
  O  O26  1  0.89612300  0.39173000  0.60747100  1
  O  O27  1  0.36151900  0.36096000  0.61233600  1
  O  O28  1  0.64514400  0.61999200  0.61062900  1
  O  O29  1  0.87752900  0.85762900  0.60327400  1
  O  O30  1  0.37752900  0.14237100  0.39672600  1
  O  O31  1  0.14514400  0.38000800  0.38937100  1
  O  O32  1  0.86151900  0.63904000  0.38766400  1
  O  O33  1  0.39612300  0.60827000  0.39252900  1
  O  O34  1  0.64034000  0.85498400  0.37223400  1
  O  O35  1  0.61033600  0.38841900  0.36229400  1
  O  O36  1  0.87230100  0.10461000  0.36114800  1
  O  O37  1  0.11100600  0.86912700  0.35599300  1
  O  O38  1  0.39227100  0.35953600  0.14667500  1
  O  O39  1  0.64269000  0.60427900  0.14076000  1
  O  O40  1  0.88782400  0.89020800  0.13992100  1
  O  O41  1  0.85764600  0.35212800  0.14256100  1
  O  O42  1  0.10579900  0.11066400  0.12189500  1
  O  O43  1  0.64059900  0.13958300  0.10852900  1
  O  O44  1  0.35387100  0.88999300  0.10807500  1
  O  O45  1  0.10753100  0.64064600  0.10483300  1
  O  O46  1  0.60753100  0.35935400  0.89516700  1
  O  O47  1  0.85387100  0.11000700  0.89192500  1
  O  O48  1  0.14059900  0.86041700  0.89147100  1
  O  O49  1  0.60579900  0.88933600  0.87810500  1
  O  O50  1  0.35764600  0.64787200  0.85743900  1
  O  O51  1  0.38782400  0.10979200  0.86007900  1
  O  O52  1  0.14269000  0.39572100  0.85924000  1
  O  O53  1  0.89227100  0.64046400  0.85332500  1
