# generated using pymatgen
data_B84O11
_symmetry_space_group_name_H-M   'P 1'
_cell_length_a   7.39570000
_cell_length_b   8.79982218
_cell_length_c   11.80692319
_cell_angle_alpha   95.81374856
_cell_angle_beta   91.22252876
_cell_angle_gamma   112.22429357
_symmetry_Int_Tables_number   1
_chemical_formula_structural   B84O11
_chemical_formula_sum   'B84 O11'
_cell_volume   706.17539285
_cell_formula_units_Z   1
loop_
 _symmetry_equiv_pos_site_id
 _symmetry_equiv_pos_as_xyz
  1  'x, y, z'
loop_
 _atom_site_type_symbol
 _atom_site_label
 _atom_site_symmetry_multiplicity
 _atom_site_fract_x
 _atom_site_fract_y
 _atom_site_fract_z
 _atom_site_occupancy
  B  B0  1  0.09090400  0.85252800  0.95089400  1
  B  B1  1  0.22550000  0.56767200  0.98980900  1
  B  B2  1  0.43045100  0.72899700  0.94929200  1
  B  B3  1  0.84817500  0.83728800  0.89858600  1
  B  B4  1  0.19415500  0.71663500  0.90454100  1
  B  B5  1  0.43659000  0.52622800  0.95076600  1
  B  B6  1  0.23469800  0.06885900  0.98384700  1
  B  B7  1  0.54377600  0.65367700  0.83717300  1
  B  B8  1  0.19717500  0.38161200  0.90405300  1
  B  B9  1  0.47254800  0.94864500  0.75691100  1
  B  B10  1  0.09862300  0.19457800  0.95485200  1
  B  B11  1  0.38660900  0.76485600  0.80893200  1
  B  B12  1  0.05181700  0.50164000  0.87469300  1
  B  B13  1  0.39041200  0.43145200  0.80843500  1
  B  B14  1  0.66147400  0.99588600  0.66311700  1
  B  B15  1  0.85577800  0.04917700  0.90369400  1
  B  B16  1  0.14798500  0.62162000  0.76242000  1
  B  B17  1  0.50539300  0.13573400  0.84439200  1
  B  B18  1  0.70939600  0.29635300  0.80537800  1
  B  B19  1  0.79137400  0.71551200  0.71471300  1
  B  B20  1  0.99858000  0.87174400  0.66585000  1
  B  B21  1  0.06116600  0.00418400  0.86768400  1
  B  B22  1  0.35625300  0.57908800  0.72413000  1
  B  B23  1  0.15081400  0.41740300  0.76371300  1
  B  B24  1  0.41684100  0.97792400  0.61042400  1
  B  B25  1  0.47556200  0.28544700  0.75895600  1
  B  B26  1  0.76436500  0.85975800  0.62130100  1
  B  B27  1  0.00709200  0.67036600  0.66994900  1
  B  B28  1  0.71205500  0.09221200  0.80714700  1
  B  B29  1  0.80665300  0.21136900  0.69471800  1
  B  B30  1  0.11287700  0.79665500  0.55375200  1
  B  B31  1  0.76770900  0.52616800  0.62384500  1
  B  B32  1  0.66607300  0.33316200  0.66476400  1
  B  B33  1  0.95744400  0.90914400  0.52470600  1
  B  B34  1  0.33305900  0.07118900  0.72822600  1
  B  B35  1  0.62523100  0.64645200  0.59211900  1
  B  B36  1  0.96191600  0.57542700  0.52630600  1
  B  B37  1  0.42572300  0.18957100  0.61513400  1
  B  B38  1  0.71771800  0.76470100  0.47867100  1
  B  B39  1  0.08022500  0.28190000  0.55887800  1
  B  B40  1  0.35726100  0.85682700  0.43067000  1
  B  B41  1  0.28357800  0.44154100  0.51849700  1
  B  B42  1  0.63198400  0.14559800  0.57921000  1
  B  B43  1  0.92566200  0.72218100  0.44139700  1
  B  B44  1  0.72293900  0.56134600  0.48168700  1
  B  B45  1  0.04940200  0.43049700  0.47281200  1
  B  B46  1  0.28650500  0.23820000  0.52116100  1
  B  B47  1  0.56893600  0.80890400  0.38719600  1
  B  B48  1  0.38046500  0.35566600  0.40791700  1
  B  B49  1  0.66317300  0.92590200  0.27074600  1
  B  B50  1  0.04926800  0.09575700  0.47425100  1
  B  B51  1  0.33198100  0.66795200  0.33923200  1
  B  B52  1  0.23874600  0.47520500  0.37585300  1
  B  B53  1  0.19015000  0.78694000  0.30716300  1
  B  B54  1  0.90782100  0.21650500  0.44337600  1
  B  B55  1  0.23946500  0.14275400  0.37798300  1
  B  B56  1  0.52128500  0.71258700  0.24296500  1
  B  B57  1  0.28275700  0.90344200  0.19229200  1
  B  B58  1  0.00226000  0.33399900  0.32807800  1
  B  B59  1  0.64522200  0.42059200  0.27601600  1
  B  B60  1  0.56453700  0.01127600  0.38092300  1
  B  B61  1  0.93711000  0.99505100  0.13244300  1
  B  B62  1  0.84829900  0.58201000  0.23607500  1
  B  B63  1  0.21467600  0.28645900  0.28380900  1
  B  B64  1  0.49109700  0.86087100  0.15540500  1
  B  B65  1  0.28771200  0.70128400  0.19605200  1
  B  B66  1  0.00630600  0.13097900  0.33247500  1
  B  B67  1  0.33076200  0.99948900  0.33603100  1
  B  B68  1  0.60819600  0.56759700  0.19215900  1
  B  B69  1  0.85299600  0.37806300  0.23773500  1
  B  B70  1  0.14172200  0.94916800  0.09616200  1
  B  B71  1  0.94707600  0.49762400  0.12532300  1
  B  B72  1  0.89993100  0.80470900  0.04499500  1
  B  B73  1  0.61248000  0.23349700  0.19176200  1
  B  B74  1  0.52055100  0.04618900  0.24007900  1
  B  B75  1  0.80162600  0.61799200  0.09605400  1
  B  B76  1  0.45551900  0.34559200  0.16373700  1
  B  B77  1  0.76387100  0.93021500  0.01628600  1
  B  B78  1  0.80474700  0.28251300  0.09582300  1
  B  B79  1  0.56232600  0.47315000  0.04963300  1
  B  B80  1  0.15049600  0.16150600  0.10097600  1
  B  B81  1  0.77332400  0.43161400  0.01062700  1
  B  B82  1  0.56827700  0.26991600  0.05104600  1
  B  B83  1  0.90790900  0.14680900  0.04905500  1
  O  O84  1  0.44530400  0.13518800  0.96379500  1
  O  O85  1  0.83696800  0.43256100  0.89135200  1
  O  O86  1  0.02065800  0.28165700  0.67788000  1
  O  O87  1  0.12387100  0.00706100  0.74981800  1
  O  O88  1  0.41167500  0.57801900  0.60432700  1
  O  O89  1  0.97754500  0.71761500  0.32167100  1
  O  O90  1  0.59365600  0.42501900  0.39591800  1
  O  O91  1  0.69575300  0.14892700  0.46177900  1
  O  O92  1  0.87482600  0.99329900  0.25075200  1
  O  O93  1  0.16153800  0.56534400  0.10928500  1
  O  O94  1  0.55314500  0.86294000  0.03671000  1
