# generated using pymatgen
data_NbH14C4NO14
_symmetry_space_group_name_H-M   'P 1'
_cell_length_a   16.48530400
_cell_length_b   6.64356400
_cell_length_c   13.82191778
_cell_angle_alpha   64.01204582
_cell_angle_beta   90.00000000
_cell_angle_gamma   90.00000000
_symmetry_Int_Tables_number   1
_chemical_formula_structural   NbH14C4NO14
_chemical_formula_sum   'Nb4 H56 C16 N4 O56'
_cell_volume   1360.72729472
_cell_formula_units_Z   4
loop_
 _symmetry_equiv_pos_site_id
 _symmetry_equiv_pos_as_xyz
  1  'x, y, z'
loop_
 _atom_site_type_symbol
 _atom_site_label
 _atom_site_symmetry_multiplicity
 _atom_site_fract_x
 _atom_site_fract_y
 _atom_site_fract_z
 _atom_site_occupancy
  Nb  Nb0  1  0.38994500  0.00966200  0.70117200  1
  Nb  Nb1  1  0.88994500  0.99033800  0.79882800  1
  Nb  Nb2  1  0.11005500  0.00966200  0.20117200  1
  Nb  Nb3  1  0.61005500  0.99033800  0.29882800  1
  H  H4  1  0.65650600  0.36456900  0.52606000  1
  H  H5  1  0.41440100  0.63636800  0.55010200  1
  H  H6  1  0.98680700  0.70416600  0.57279400  1
  H  H7  1  0.10870500  0.20266700  0.57608900  1
  H  H8  1  0.90886300  0.80690800  0.60195900  1
  H  H9  1  0.18292700  0.55445500  0.63565400  1
  H  H10  1  0.54694600  0.17335800  0.62860200  1
  H  H11  1  0.17973600  0.05160600  0.64352300  1
  H  H12  1  0.49343600  0.68612600  0.67542800  1
  H  H13  1  0.26712200  0.41254400  0.70201000  1
  H  H14  1  0.23511100  0.63712500  0.71803500  1
  H  H15  1  0.67946800  0.60165500  0.72978600  1
  H  H16  1  0.93459100  0.46373600  0.72515900  1
  H  H17  1  0.05442100  0.98059500  0.73873800  1
  H  H18  1  0.43459100  0.53626400  0.77484100  1
  H  H19  1  0.17946800  0.39834500  0.77021400  1
  H  H20  1  0.55442100  0.01940500  0.76126200  1
  H  H21  1  0.73511100  0.36287500  0.78196500  1
  H  H22  1  0.76712200  0.58745600  0.79799000  1
  H  H23  1  0.99343600  0.31387400  0.82457200  1
  H  H24  1  0.68292700  0.44554500  0.86434600  1
  H  H25  1  0.67973600  0.94839400  0.85647700  1
  H  H26  1  0.04694600  0.82664200  0.87139800  1
  H  H27  1  0.40886300  0.19309200  0.89804100  1
  H  H28  1  0.48680700  0.29583400  0.92720600  1
  H  H29  1  0.60870500  0.79733300  0.92391100  1
  H  H30  1  0.91440100  0.36363200  0.94989800  1
  H  H31  1  0.15650600  0.63543100  0.97394000  1
  H  H32  1  0.84349400  0.36456900  0.02606000  1
  H  H33  1  0.08559900  0.63636800  0.05010200  1
  H  H34  1  0.39129500  0.20266700  0.07608900  1
  H  H35  1  0.51319300  0.70416600  0.07279400  1
  H  H36  1  0.59113700  0.80690800  0.10195900  1
  H  H37  1  0.95305400  0.17335800  0.12860200  1
  H  H38  1  0.32026400  0.05160600  0.14352300  1
  H  H39  1  0.31707300  0.55445500  0.13565400  1
  H  H40  1  0.00656400  0.68612600  0.17542800  1
  H  H41  1  0.23287800  0.41254400  0.20201000  1
  H  H42  1  0.26488900  0.63712500  0.21803500  1
  H  H43  1  0.44557900  0.98059500  0.23873800  1
  H  H44  1  0.82053200  0.60165500  0.22978600  1
  H  H45  1  0.56540900  0.46373600  0.22515900  1
  H  H46  1  0.94557900  0.01940500  0.26126200  1
  H  H47  1  0.06540900  0.53626400  0.27484100  1
  H  H48  1  0.32053200  0.39834500  0.27021400  1
  H  H49  1  0.76488900  0.36287500  0.28196500  1
  H  H50  1  0.73287800  0.58745600  0.29799000  1
  H  H51  1  0.50656400  0.31387400  0.32457200  1
  H  H52  1  0.82026400  0.94839400  0.35647700  1
  H  H53  1  0.45305400  0.82664200  0.37139800  1
  H  H54  1  0.81707300  0.44554500  0.36434600  1
  H  H55  1  0.09113700  0.19309200  0.39804100  1
  H  H56  1  0.89129500  0.79733300  0.42391100  1
  H  H57  1  0.01319300  0.29583400  0.42720600  1
  H  H58  1  0.58559900  0.36363200  0.44989800  1
  H  H59  1  0.34349400  0.63543100  0.47394000  1
  C  C60  1  0.70150000  0.92024100  0.50174100  1
  C  C61  1  0.61612600  0.82155900  0.53890300  1
  C  C62  1  0.89048100  0.25822800  0.55616200  1
  C  C63  1  0.80973700  0.31968800  0.59259900  1
  C  C64  1  0.30973700  0.68031200  0.90740100  1
  C  C65  1  0.39048100  0.74177200  0.94383800  1
  C  C66  1  0.11612600  0.17844100  0.96109700  1
  C  C67  1  0.20150000  0.07975900  0.99825900  1
  C  C68  1  0.79850000  0.92024100  0.00174100  1
  C  C69  1  0.88387400  0.82155900  0.03890300  1
  C  C70  1  0.60951900  0.25822800  0.05616200  1
  C  C71  1  0.69026300  0.31968800  0.09259900  1
  C  C72  1  0.19026300  0.68031200  0.40740100  1
  C  C73  1  0.10951900  0.74177200  0.44383800  1
  C  C74  1  0.38387400  0.17844100  0.46109700  1
  C  C75  1  0.29850000  0.07975900  0.49825900  1
  N  N76  1  0.21613700  0.50171400  0.70621700  1
  N  N77  1  0.71613700  0.49828600  0.79378300  1
  N  N78  1  0.28386300  0.50171400  0.20621700  1
  N  N79  1  0.78386300  0.49828600  0.29378300  1
  O  O80  1  0.60425000  0.29372800  0.52445000  1
  O  O81  1  0.76015500  0.44711600  0.52719300  1
  O  O82  1  0.09053500  0.66618400  0.54048800  1
  O  O83  1  0.43286900  0.14489100  0.53981400  1
  O  O84  1  0.75613400  0.90609200  0.56505100  1
  O  O85  1  0.92912500  0.67502700  0.59551900  1
  O  O86  1  0.29242900  0.98243200  0.60397800  1
  O  O87  1  0.59743400  0.71893300  0.63562500  1
  O  O88  1  0.93430400  0.12026400  0.63529200  1
  O  O89  1  0.12551000  0.10538500  0.64992500  1
  O  O90  1  0.43753900  0.67527900  0.70454700  1
  O  O91  1  0.80086300  0.22205800  0.69691600  1
  O  O92  1  0.35159800  0.25855400  0.69935000  1
  O  O93  1  0.51587000  0.09590200  0.69876200  1
  O  O94  1  0.93753900  0.32472100  0.79545300  1
  O  O95  1  0.01587000  0.90409800  0.80123800  1
  O  O96  1  0.85159800  0.74144600  0.80065000  1
  O  O97  1  0.30086300  0.77794200  0.80308400  1
  O  O98  1  0.62551000  0.89461500  0.85007500  1
  O  O99  1  0.09743400  0.28106700  0.86437500  1
  O  O100  1  0.43430400  0.87973600  0.86470800  1
  O  O101  1  0.79242900  0.01756800  0.89602200  1
  O  O102  1  0.42912500  0.32497300  0.90448100  1
  O  O103  1  0.25613400  0.09390800  0.93494900  1
  O  O104  1  0.59053500  0.33381600  0.95951200  1
  O  O105  1  0.93286900  0.85510900  0.96018600  1
  O  O106  1  0.26015500  0.55288400  0.97280700  1
  O  O107  1  0.10425000  0.70627200  0.97555000  1
  O  O108  1  0.89575000  0.29372800  0.02445000  1
  O  O109  1  0.73984500  0.44711600  0.02719300  1
  O  O110  1  0.06713100  0.14489100  0.03981400  1
  O  O111  1  0.40946500  0.66618400  0.04048800  1
  O  O112  1  0.74386600  0.90609200  0.06505100  1
  O  O113  1  0.57087500  0.67502700  0.09551900  1
  O  O114  1  0.20757100  0.98243200  0.10397800  1
  O  O115  1  0.56569600  0.12026400  0.13529200  1
  O  O116  1  0.90256600  0.71893300  0.13562500  1
  O  O117  1  0.37449000  0.10538500  0.14992500  1
  O  O118  1  0.69913700  0.22205800  0.19691600  1
  O  O119  1  0.14840200  0.25855400  0.19935000  1
  O  O120  1  0.98413000  0.09590200  0.19876200  1
  O  O121  1  0.06246100  0.67527900  0.20454700  1
  O  O122  1  0.48413000  0.90409800  0.30123800  1
  O  O123  1  0.64840200  0.74144600  0.30065000  1
  O  O124  1  0.19913700  0.77794200  0.30308400  1
  O  O125  1  0.56246100  0.32472100  0.29545300  1
  O  O126  1  0.87449000  0.89461500  0.35007500  1
  O  O127  1  0.06569600  0.87973600  0.36470800  1
  O  O128  1  0.40256600  0.28106700  0.36437500  1
  O  O129  1  0.70757100  0.01756800  0.39602200  1
  O  O130  1  0.07087500  0.32497300  0.40448100  1
  O  O131  1  0.24386600  0.09390800  0.43494900  1
  O  O132  1  0.56713100  0.85510900  0.46018600  1
  O  O133  1  0.90946500  0.33381600  0.45951200  1
  O  O134  1  0.23984500  0.55288400  0.47280700  1
  O  O135  1  0.39575000  0.70627200  0.47555000  1
