# generated using pymatgen
data_Nb2OF8
_symmetry_space_group_name_H-M   'P 1'
_cell_length_a   5.45735100
_cell_length_b   9.39014700
_cell_length_c   15.69637063
_cell_angle_alpha   75.64349223
_cell_angle_beta   90.00000000
_cell_angle_gamma   90.00000000
_symmetry_Int_Tables_number   1
_chemical_formula_structural   Nb2OF8
_chemical_formula_sum   'Nb8 O4 F32'
_cell_volume   779.24665722
_cell_formula_units_Z   4
loop_
 _symmetry_equiv_pos_site_id
 _symmetry_equiv_pos_as_xyz
  1  'x, y, z'
loop_
 _atom_site_type_symbol
 _atom_site_label
 _atom_site_symmetry_multiplicity
 _atom_site_fract_x
 _atom_site_fract_y
 _atom_site_fract_z
 _atom_site_occupancy
  Nb  Nb0  1  0.80129100  0.90664900  0.87712700  1
  Nb  Nb1  1  0.19870900  0.90664900  0.37712700  1
  Nb  Nb2  1  0.06637100  0.53605300  0.84474400  1
  Nb  Nb3  1  0.06637100  0.46394700  0.65525600  1
  Nb  Nb4  1  0.93362900  0.53605300  0.34474400  1
  Nb  Nb5  1  0.93362900  0.46394700  0.15525600  1
  Nb  Nb6  1  0.80129100  0.09335100  0.62287300  1
  Nb  Nb7  1  0.19870900  0.09335100  0.12287300  1
  O  O8  1  0.94451200  0.70498300  0.86044000  1
  O  O9  1  0.05548800  0.70498300  0.36044000  1
  O  O10  1  0.94451200  0.29501700  0.63956000  1
  O  O11  1  0.05548800  0.29501700  0.13956000  1
  F  F12  1  0.94982700  0.00000000  0.75000000  1
  F  F13  1  0.12407900  0.93251500  0.91584900  1
  F  F14  1  0.67289600  0.80316400  0.98576400  1
  F  F15  1  0.54160500  0.86061400  0.80765900  1
  F  F16  1  0.69526100  0.90517400  0.61786700  1
  F  F17  1  0.05017300  0.00000000  0.25000000  1
  F  F18  1  0.87592100  0.93251500  0.41584900  1
  F  F19  1  0.32710400  0.80316400  0.48576400  1
  F  F20  1  0.45839500  0.86061400  0.30765900  1
  F  F21  1  0.30473900  0.90517400  0.11786700  1
  F  F22  1  0.19751500  0.63487400  0.72038600  1
  F  F23  1  0.37634800  0.52694600  0.89824400  1
  F  F24  1  0.89609100  0.60444700  0.56850200  1
  F  F25  1  0.80821200  0.50000000  0.75000000  1
  F  F26  1  0.80248500  0.63487400  0.22038600  1
  F  F27  1  0.89609100  0.39555300  0.93149800  1
  F  F28  1  0.62365200  0.52694600  0.39824400  1
  F  F29  1  0.37634800  0.47305400  0.60175600  1
  F  F30  1  0.10390900  0.60444700  0.06850200  1
  F  F31  1  0.19751500  0.36512600  0.77961400  1
  F  F32  1  0.19178800  0.50000000  0.25000000  1
  F  F33  1  0.10390900  0.39555300  0.43149800  1
  F  F34  1  0.62365200  0.47305400  0.10175600  1
  F  F35  1  0.80248500  0.36512600  0.27961400  1
  F  F36  1  0.69526100  0.09482600  0.88213300  1
  F  F37  1  0.54160500  0.13938600  0.69234100  1
  F  F38  1  0.67289600  0.19683600  0.51423600  1
  F  F39  1  0.12407900  0.06748500  0.58415100  1
  F  F40  1  0.30473900  0.09482600  0.38213300  1
  F  F41  1  0.45839500  0.13938600  0.19234100  1
  F  F42  1  0.32710400  0.19683600  0.01423600  1
  F  F43  1  0.87592100  0.06748500  0.08415100  1
