# generated using pymatgen
data_Zn5P6H22(NO11)2
_symmetry_space_group_name_H-M   'P 1'
_cell_length_a   7.30351900
_cell_length_b   9.90210081
_cell_length_c   10.40329064
_cell_angle_alpha   116.53649051
_cell_angle_beta   86.95580260
_cell_angle_gamma   107.11291971
_symmetry_Int_Tables_number   1
_chemical_formula_structural   Zn5P6H22(NO11)2
_chemical_formula_sum   'Zn5 P6 H22 N2 O22'
_cell_volume   640.59826549
_cell_formula_units_Z   1
loop_
 _symmetry_equiv_pos_site_id
 _symmetry_equiv_pos_as_xyz
  1  'x, y, z'
loop_
 _atom_site_type_symbol
 _atom_site_label
 _atom_site_symmetry_multiplicity
 _atom_site_fract_x
 _atom_site_fract_y
 _atom_site_fract_z
 _atom_site_occupancy
  Zn  Zn0  1  0.50000000  0.00000000  0.50000000  1
  Zn  Zn1  1  0.63758100  0.35644500  0.01928800  1
  Zn  Zn2  1  0.66446600  0.70357800  0.66322800  1
  Zn  Zn3  1  0.33553400  0.29642200  0.33677200  1
  Zn  Zn4  1  0.36241900  0.64355500  0.98071200  1
  P  P5  1  0.74911000  0.06087300  0.79674500  1
  P  P6  1  0.76117000  0.59116500  0.88060700  1
  P  P7  1  0.76191600  0.50442000  0.34879600  1
  P  P8  1  0.23808400  0.49558000  0.65120400  1
  P  P9  1  0.23883000  0.40883500  0.11939300  1
  P  P10  1  0.25089000  0.93912700  0.20325500  1
  H  H11  1  0.91518600  0.06910400  0.19039600  1
  H  H12  1  0.90354300  0.16300700  0.76469000  1
  H  H13  1  0.94262500  0.50269400  0.38741700  1
  H  H14  1  0.94952000  0.65827400  0.94901100  1
  H  H15  1  0.76781600  0.09669300  0.08601300  1
  H  H16  1  0.67867300  0.05537000  0.22276400  1
  H  H17  1  0.72330800  0.30263400  0.65228300  1
  H  H18  1  0.66861900  0.27601600  0.49728900  1
  H  H19  1  0.74015800  0.80908800  0.40116400  1
  H  H20  1  0.73607200  0.91524800  0.07541500  1
  H  H21  1  0.38438900  0.21514900  0.72685200  1
  H  H22  1  0.61561100  0.78485100  0.27314800  1
  H  H23  1  0.26392800  0.08475200  0.92458500  1
  H  H24  1  0.25984200  0.19091200  0.59883600  1
  H  H25  1  0.33138100  0.72398400  0.50271100  1
  H  H26  1  0.27669200  0.69736600  0.34771700  1
  H  H27  1  0.32132700  0.94463000  0.77723600  1
  H  H28  1  0.23218400  0.90330700  0.91398700  1
  H  H29  1  0.05048000  0.34172600  0.05098900  1
  H  H30  1  0.05737500  0.49730600  0.61258300  1
  H  H31  1  0.09645700  0.83699300  0.23531000  1
  H  H32  1  0.08481400  0.93089600  0.80960400  1
  N  N33  1  0.77613900  0.03664700  0.14529200  1
  N  N34  1  0.22386100  0.96335300  0.85470800  1
  O  O35  1  0.70518500  0.15754400  0.95349200  1
  O  O36  1  0.71035000  0.22660100  0.54926200  1
  O  O37  1  0.57560500  0.00010400  0.68756800  1
  O  O38  1  0.77296500  0.58509900  0.73066600  1
  O  O39  1  0.77500900  0.51147800  0.20383600  1
  O  O40  1  0.68523400  0.41996000  0.86262300  1
  O  O41  1  0.82034500  0.92552900  0.78974100  1
  O  O42  1  0.61875200  0.34963200  0.34116600  1
  O  O43  1  0.72526800  0.65726500  0.46447000  1
  O  O44  1  0.64794100  0.70187300  0.98169800  1
  O  O45  1  0.69264300  0.86859700  0.36193200  1
  O  O46  1  0.30735700  0.13140300  0.63806800  1
  O  O47  1  0.35205900  0.29812700  0.01830200  1
  O  O48  1  0.27473200  0.34273500  0.53553000  1
  O  O49  1  0.38124800  0.65036800  0.65883400  1
  O  O50  1  0.17965500  0.07447100  0.21025900  1
  O  O51  1  0.31476600  0.58004000  0.13737700  1
  O  O52  1  0.22499100  0.48852200  0.79616400  1
  O  O53  1  0.22703500  0.41490100  0.26933400  1
  O  O54  1  0.42439500  0.99989600  0.31243200  1
  O  O55  1  0.28965000  0.77339900  0.45073800  1
  O  O56  1  0.29481500  0.84245600  0.04650800  1
