# generated using pymatgen
data_GeP
_symmetry_space_group_name_H-M   'P 1'
_cell_length_a   3.82051627
_cell_length_b   3.82051627
_cell_length_c   3.82051627
_cell_angle_alpha   124.37422039
_cell_angle_beta   124.37422039
_cell_angle_gamma   82.57713160
_symmetry_Int_Tables_number   1
_chemical_formula_structural   GeP
_chemical_formula_sum   'Ge1 P1'
_cell_volume   36.48863828
_cell_formula_units_Z   1
loop_
 _symmetry_equiv_pos_site_id
 _symmetry_equiv_pos_as_xyz
  1  'x, y, z'
loop_
 _atom_site_type_symbol
 _atom_site_label
 _atom_site_symmetry_multiplicity
 _atom_site_fract_x
 _atom_site_fract_y
 _atom_site_fract_z
 _atom_site_occupancy
  Ge  Ge0  1  0.00360900  0.00360900  0.00000000  1
  P  P1  1  0.42339100  0.42339100  0.00000000  1
