# generated using pymatgen
data_B(HO)3
_symmetry_space_group_name_H-M   'P 1'
_cell_length_a   7.01544337
_cell_length_b   7.01544337
_cell_length_c   9.61715100
_cell_angle_alpha   90.00000000
_cell_angle_beta   90.00000000
_cell_angle_gamma   119.99999410
_symmetry_Int_Tables_number   1
_chemical_formula_structural   B(HO)3
_chemical_formula_sum   'B6 H18 O18'
_cell_volume   409.90889216
_cell_formula_units_Z   6
loop_
 _symmetry_equiv_pos_site_id
 _symmetry_equiv_pos_as_xyz
  1  'x, y, z'
loop_
 _atom_site_type_symbol
 _atom_site_label
 _atom_site_symmetry_multiplicity
 _atom_site_fract_x
 _atom_site_fract_y
 _atom_site_fract_z
 _atom_site_occupancy
  B  B0  1  0.18586400  0.64386100  0.29615500  1
  B  B1  1  0.45799700  0.81413600  0.62948900  1
  B  B2  1  0.35613900  0.54200300  0.96282200  1
  B  B3  1  0.51837500  0.31137900  0.30941200  1
  B  B4  1  0.79300400  0.48162500  0.64274500  1
  B  B5  1  0.68862100  0.20699600  0.97607900  1
  H  H6  1  0.05315300  0.78608300  0.63846600  1
  H  H7  1  0.14286100  0.90505200  0.30017900  1
  H  H8  1  0.31282900  0.80396800  0.96543200  1
  H  H9  1  0.19603200  0.50886100  0.63209900  1
  H  H10  1  0.09494800  0.23780900  0.96684500  1
  H  H11  1  0.21391700  0.26706900  0.30513300  1
  H  H12  1  0.49113900  0.68717100  0.29876600  1
  H  H13  1  0.73293100  0.94684700  0.97180000  1
  H  H14  1  0.48773400  0.43711500  0.64133300  1
  H  H15  1  0.76219100  0.85713900  0.63351200  1
  H  H16  1  0.38422000  0.16409000  0.96356100  1
  H  H17  1  0.66155000  0.58670200  0.96331800  1
  H  H18  1  0.41329800  0.07484800  0.62998500  1
  H  H19  1  0.77987000  0.61578000  0.29689400  1
  H  H20  1  0.56288500  0.05061900  0.30799900  1
  H  H21  1  0.94938100  0.51226600  0.97466600  1
  H  H22  1  0.83591000  0.22013000  0.63022700  1
  H  H23  1  0.92515200  0.33845000  0.29665100  1
  O  O24  1  0.05643900  0.73993400  0.29583600  1
  O  O25  1  0.32787100  0.91092200  0.62778700  1
  O  O26  1  0.08907800  0.41694900  0.29445400  1
  O  O27  1  0.22691100  0.63931000  0.96594400  1
  O  O28  1  0.41239900  0.77308900  0.29927700  1
  O  O29  1  0.36069000  0.58760100  0.63261000  1
  O  O30  1  0.26006600  0.31650500  0.96250300  1
  O  O31  1  0.29293200  0.18144400  0.31328300  1
  O  O32  1  0.68349500  0.94356100  0.62917000  1
  O  O33  1  0.58305100  0.67212900  0.96112100  1
  O  O34  1  0.61503800  0.53724500  0.30332100  1
  O  O35  1  0.56636500  0.35088500  0.64366000  1
  O  O36  1  0.46275500  0.07779300  0.96998800  1
  O  O37  1  0.88851200  0.70706800  0.64661600  1
  O  O38  1  0.64911500  0.21547900  0.31032700  1
  O  O39  1  0.78452100  0.43363500  0.97699300  1
  O  O40  1  0.92220700  0.38496200  0.63665500  1
  O  O41  1  0.81855600  0.11148800  0.97994900  1
