# generated using pymatgen
data_TiNb2O7
_symmetry_space_group_name_H-M   'P 1'
_cell_length_a   7.67666000
_cell_length_b   10.56089120
_cell_length_c   11.46526170
_cell_angle_alpha   66.87256091
_cell_angle_beta   80.36574825
_cell_angle_gamma   79.52607849
_symmetry_Int_Tables_number   1
_chemical_formula_structural   TiNb2O7
_chemical_formula_sum   'Ti6 Nb12 O42'
_cell_volume   835.82539994
_cell_formula_units_Z   6
loop_
 _symmetry_equiv_pos_site_id
 _symmetry_equiv_pos_as_xyz
  1  'x, y, z'
loop_
 _atom_site_type_symbol
 _atom_site_label
 _atom_site_symmetry_multiplicity
 _atom_site_fract_x
 _atom_site_fract_y
 _atom_site_fract_z
 _atom_site_occupancy
  Ti  Ti0  1  0.40849800  0.36867400  0.00228800  1
  Ti  Ti1  1  0.54121800  0.47881100  0.35951100  1
  Ti  Ti2  1  0.64638000  0.78058500  0.63677900  1
  Ti  Ti3  1  0.14468100  0.79106200  0.62738300  1
  Ti  Ti4  1  0.85203900  0.21846400  0.37309200  1
  Ti  Ti5  1  0.05676100  0.14443600  0.62717800  1
  Nb  Nb6  1  0.94260900  0.85931900  0.36710100  1
  Nb  Nb7  1  0.44848800  0.83940400  0.37109700  1
  Nb  Nb8  1  0.90458800  0.35970700  0.01603700  1
  Nb  Nb9  1  0.03762800  0.48163500  0.36106200  1
  Nb  Nb10  1  0.00290700  0.00409400  0.98407100  1
  Nb  Nb11  1  0.49745500  0.01126500  0.99889400  1
  Nb  Nb12  1  0.35483100  0.21642400  0.36481700  1
  Nb  Nb13  1  0.96102300  0.51903300  0.64017200  1
  Nb  Nb14  1  0.45963700  0.51923900  0.63952000  1
  Nb  Nb15  1  0.59036100  0.63619200  0.99772700  1
  Nb  Nb16  1  0.09663400  0.63489500  0.98465700  1
  Nb  Nb17  1  0.55746000  0.14397700  0.62961200  1
  O  O18  1  0.97326800  0.91235800  0.19632600  1
  O  O19  1  0.47296600  0.90876900  0.19760700  1
  O  O20  1  0.85450400  0.58301400  0.99733900  1
  O  O21  1  0.35584900  0.58158400  0.99708100  1
  O  O22  1  0.56428400  0.55297000  0.19041900  1
  O  O23  1  0.06374900  0.55564800  0.18735200  1
  O  O24  1  0.68621000  0.83411200  0.41883100  1
  O  O25  1  0.18657800  0.83421700  0.42175100  1
  O  O26  1  0.95174400  0.18616600  0.00657900  1
  O  O27  1  0.45025000  0.19222500  0.00657000  1
  O  O28  1  0.60535200  0.96682600  0.61117200  1
  O  O29  1  0.10501800  0.96911400  0.61174400  1
  O  O30  1  0.98695000  0.63638000  0.41385800  1
  O  O31  1  0.48903300  0.63187700  0.41292700  1
  O  O32  1  0.87687800  0.29461500  0.19967500  1
  O  O33  1  0.37803400  0.29635600  0.19079300  1
  O  O34  1  0.75016900  0.99653100  0.00404600  1
  O  O35  1  0.24946200  0.99739700  0.00343100  1
  O  O36  1  0.91282400  0.75175300  0.59858600  1
  O  O37  1  0.41261100  0.75041400  0.59772100  1
  O  O38  1  0.79712400  0.42631600  0.37652300  1
  O  O39  1  0.30094000  0.42704300  0.37620100  1
  O  O40  1  0.69966100  0.57715600  0.62245200  1
  O  O41  1  0.20138300  0.57472000  0.62206000  1
  O  O42  1  0.58773100  0.24947000  0.40370900  1
  O  O43  1  0.08565600  0.25007300  0.40317900  1
  O  O44  1  0.62250000  0.70450000  0.80547600  1
  O  O45  1  0.12313700  0.70559300  0.80230500  1
  O  O46  1  0.51241600  0.36622700  0.58660500  1
  O  O47  1  0.01123500  0.36674000  0.58581300  1
  O  O48  1  0.89317500  0.03693600  0.38845300  1
  O  O49  1  0.39560000  0.02862300  0.39049600  1
  O  O50  1  0.54670300  0.81315100  0.99487200  1
  O  O51  1  0.04986800  0.80901800  0.99631100  1
  O  O52  1  0.81524200  0.16632200  0.57991700  1
  O  O53  1  0.31128700  0.16591400  0.58179500  1
  O  O54  1  0.93608900  0.44320300  0.81350200  1
  O  O55  1  0.43556100  0.44315100  0.81431900  1
  O  O56  1  0.64446000  0.41263600  0.00406200  1
  O  O57  1  0.14645800  0.41478100  0.00370700  1
  O  O58  1  0.02706100  0.08933000  0.79889400  1
  O  O59  1  0.52778300  0.08955300  0.80454800  1
