# generated using pymatgen
data_AgH8C4N8F
_symmetry_space_group_name_H-M   'P 1'
_cell_length_a   6.20828500
_cell_length_b   7.73430326
_cell_length_c   9.83865949
_cell_angle_alpha   93.03938406
_cell_angle_beta   97.80398934
_cell_angle_gamma   97.64988935
_symmetry_Int_Tables_number   1
_chemical_formula_structural   AgH8C4N8F
_chemical_formula_sum   'Ag2 H16 C8 N16 F2'
_cell_volume   462.66195975
_cell_formula_units_Z   2
loop_
 _symmetry_equiv_pos_site_id
 _symmetry_equiv_pos_as_xyz
  1  'x, y, z'
loop_
 _atom_site_type_symbol
 _atom_site_label
 _atom_site_symmetry_multiplicity
 _atom_site_fract_x
 _atom_site_fract_y
 _atom_site_fract_z
 _atom_site_occupancy
  Ag  Ag0  1  0.13339900  0.35813400  0.92482100  1
  Ag  Ag1  1  0.86660000  0.64186600  0.07517900  1
  H  H2  1  0.04503100  0.27264600  0.56196500  1
  H  H3  1  0.11078100  0.48511700  0.63091700  1
  H  H4  1  0.20896500  0.86097400  0.62143500  1
  H  H5  1  0.08146700  0.01016900  0.30318900  1
  H  H6  1  0.10235800  0.99565900  0.12596100  1
  H  H7  1  0.36324000  0.74257700  0.73600100  1
  H  H8  1  0.32361100  0.11252300  0.52893600  1
  H  H9  1  0.40307900  0.81166000  0.40423800  1
  H  H10  1  0.59692100  0.18834000  0.59576200  1
  H  H11  1  0.67638900  0.88747700  0.47106400  1
  H  H12  1  0.63676000  0.25742300  0.26399900  1
  H  H13  1  0.89764200  0.00434100  0.87403900  1
  H  H14  1  0.91853300  0.98983100  0.69681100  1
  H  H15  1  0.79103500  0.13902600  0.37856500  1
  H  H16  1  0.88921900  0.51488300  0.36908300  1
  H  H17  1  0.95496900  0.72735400  0.43803500  1
  C  C18  1  0.14131900  0.87155700  0.82270300  1
  C  C19  1  0.39082400  0.78210200  0.98722200  1
  C  C20  1  0.30301300  0.52087400  0.25055900  1
  C  C21  1  0.37167100  0.36166200  0.61862000  1
  C  C22  1  0.62832900  0.63833800  0.38138000  1
  C  C23  1  0.69698700  0.47912600  0.74944100  1
  C  C24  1  0.60917600  0.21789800  0.01277800  1
  C  C25  1  0.85868100  0.12844300  0.17729700  1
  N  N26  1  0.20198400  0.83617000  0.95559300  1
  N  N27  1  0.25070500  0.82719800  0.72093200  1
  N  N28  1  0.16103600  0.38357500  0.57996800  1
  N  N29  1  0.03431800  0.04692400  0.20512800  1
  N  N30  1  0.12675500  0.52942900  0.18998500  1
  N  N31  1  0.43885800  0.26466500  0.97701200  1
  N  N32  1  0.50556800  0.49991300  0.68952900  1
  N  N33  1  0.43475700  0.20896600  0.58616900  1
  N  N34  1  0.56524300  0.79103400  0.41383100  1
  N  N35  1  0.49443200  0.50008700  0.31047100  1
  N  N36  1  0.56114200  0.73533500  0.02298800  1
  N  N37  1  0.87324500  0.47057100  0.81001500  1
  N  N38  1  0.96568200  0.95307600  0.79487200  1
  N  N39  1  0.83896400  0.61642500  0.42003200  1
  N  N40  1  0.74929500  0.17280200  0.27906800  1
  N  N41  1  0.79801600  0.16383000  0.04440700  1
  F  F42  1  0.17330100  0.90482000  0.44747900  1
  F  F43  1  0.82669900  0.09518000  0.55252100  1
