# generated using pymatgen
data_Sr16Cu8O23
_symmetry_space_group_name_H-M   'P 1'
_cell_length_a   6.87251100
_cell_length_b   10.20548110
_cell_length_c   11.37475334
_cell_angle_alpha   106.43737767
_cell_angle_beta   98.09306654
_cell_angle_gamma   105.43595070
_symmetry_Int_Tables_number   1
_chemical_formula_structural   Sr16Cu8O23
_chemical_formula_sum   'Sr16 Cu8 O23'
_cell_volume   717.15564251
_cell_formula_units_Z   1
loop_
 _symmetry_equiv_pos_site_id
 _symmetry_equiv_pos_as_xyz
  1  'x, y, z'
loop_
 _atom_site_type_symbol
 _atom_site_label
 _atom_site_symmetry_multiplicity
 _atom_site_fract_x
 _atom_site_fract_y
 _atom_site_fract_z
 _atom_site_occupancy
  Sr  Sr0  1  0.28040600  0.99068800  0.37478300  1
  Sr  Sr1  1  0.84431800  0.13563600  0.37546400  1
  Sr  Sr2  1  0.34137800  0.64066000  0.37099000  1
  Sr  Sr3  1  0.40542000  0.11464000  0.12550500  1
  Sr  Sr4  1  0.59458000  0.88536000  0.87449500  1
  Sr  Sr5  1  0.46656500  0.75984700  0.12372900  1
  Sr  Sr6  1  0.90556700  0.61298400  0.12306800  1
  Sr  Sr7  1  0.79269600  0.49025400  0.37124400  1
  Sr  Sr8  1  0.96924300  0.25934300  0.12470200  1
  Sr  Sr9  1  0.03075700  0.74065700  0.87529800  1
  Sr  Sr10  1  0.53343500  0.24015300  0.87627100  1
  Sr  Sr11  1  0.20730400  0.50974600  0.62875600  1
  Sr  Sr12  1  0.65862200  0.35934000  0.62901000  1
  Sr  Sr13  1  0.09443300  0.38701600  0.87693200  1
  Sr  Sr14  1  0.71959400  0.00931200  0.62521700  1
  Sr  Sr15  1  0.15568200  0.86436400  0.62453600  1
  Cu  Cu16  1  0.32070500  0.32013300  0.37952400  1
  Cu  Cu17  1  0.81239300  0.81322300  0.37552700  1
  Cu  Cu18  1  0.93400500  0.93522000  0.12418800  1
  Cu  Cu19  1  0.43814400  0.43697800  0.12664000  1
  Cu  Cu20  1  0.67929500  0.67986700  0.62047600  1
  Cu  Cu21  1  0.56185600  0.56302200  0.87336000  1
  Cu  Cu22  1  0.18760700  0.18677700  0.62447300  1
  Cu  Cu23  1  0.06599500  0.06478000  0.87581200  1
  O  O24  1  0.10292600  0.40210600  0.38459300  1
  O  O25  1  0.55343600  0.25313300  0.38452200  1
  O  O26  1  0.11677200  0.11754000  0.24606400  1
  O  O27  1  0.00000000  0.00000000  0.50000000  1
  O  O28  1  0.04845900  0.73664400  0.37500900  1
  O  O29  1  0.57978400  0.89379100  0.37497000  1
  O  O30  1  0.16678300  0.85643800  0.12216000  1
  O  O31  1  0.69954500  0.01291200  0.12390800  1
  O  O32  1  0.75007700  0.75139500  0.00028600  1
  O  O33  1  0.62620100  0.62553400  0.25290900  1
  O  O34  1  0.67321000  0.35862300  0.12613600  1
  O  O35  1  0.20321300  0.51483400  0.12474000  1
  O  O36  1  0.32679000  0.64137700  0.87386400  1
  O  O37  1  0.79678700  0.48516600  0.87526000  1
  O  O38  1  0.37379900  0.37446600  0.74709100  1
  O  O39  1  0.24992300  0.24860500  0.99971400  1
  O  O40  1  0.89707400  0.59789400  0.61540700  1
  O  O41  1  0.83321700  0.14356200  0.87784000  1
  O  O42  1  0.30045500  0.98708800  0.87609200  1
  O  O43  1  0.42021600  0.10620900  0.62503000  1
  O  O44  1  0.95154100  0.26335600  0.62499100  1
  O  O45  1  0.88322800  0.88246000  0.75393600  1
  O  O46  1  0.44656400  0.74686700  0.61547800  1
