# generated using pymatgen
data_NaGa3P2(HO3)4
_symmetry_space_group_name_H-M   'P 1'
_cell_length_a   10.40912200
_cell_length_b   7.35680500
_cell_length_c   12.87759025
_cell_angle_alpha   63.69613499
_cell_angle_beta   90.00000000
_cell_angle_gamma   90.00000000
_symmetry_Int_Tables_number   1
_chemical_formula_structural   NaGa3P2(HO3)4
_chemical_formula_sum   'Na4 Ga12 P8 H16 O48'
_cell_volume   884.03037125
_cell_formula_units_Z   4
loop_
 _symmetry_equiv_pos_site_id
 _symmetry_equiv_pos_as_xyz
  1  'x, y, z'
loop_
 _atom_site_type_symbol
 _atom_site_label
 _atom_site_symmetry_multiplicity
 _atom_site_fract_x
 _atom_site_fract_y
 _atom_site_fract_z
 _atom_site_occupancy
  Na  Na0  1  0.57605900  0.74293100  0.80609900  1
  Na  Na1  1  0.07605900  0.25706900  0.69390100  1
  Na  Na2  1  0.92394100  0.74293100  0.30609900  1
  Na  Na3  1  0.42394100  0.25706900  0.19390100  1
  Ga  Ga4  1  0.22001700  0.48621800  0.96147300  1
  Ga  Ga5  1  0.75399700  0.97576500  0.96027000  1
  Ga  Ga6  1  0.56261100  0.24680900  0.76257100  1
  Ga  Ga7  1  0.06261100  0.75319100  0.73742900  1
  Ga  Ga8  1  0.72001700  0.51378200  0.53852700  1
  Ga  Ga9  1  0.25399700  0.02423500  0.53973000  1
  Ga  Ga10  1  0.74600300  0.97576500  0.46027000  1
  Ga  Ga11  1  0.27998300  0.48621800  0.46147300  1
  Ga  Ga12  1  0.93738900  0.24680900  0.26257100  1
  Ga  Ga13  1  0.43738900  0.75319100  0.23742900  1
  Ga  Ga14  1  0.24600300  0.02423500  0.03973000  1
  Ga  Ga15  1  0.77998300  0.51378200  0.03852700  1
  P  P16  1  0.82457500  0.44217600  0.80816400  1
  P  P17  1  0.30974100  0.94487300  0.81756600  1
  P  P18  1  0.32457500  0.55782400  0.69183600  1
  P  P19  1  0.80974100  0.05512700  0.68243400  1
  P  P20  1  0.19025900  0.94487300  0.31756600  1
  P  P21  1  0.67542500  0.44217600  0.30816400  1
  P  P22  1  0.69025900  0.05512700  0.18243400  1
  P  P23  1  0.17542500  0.55782400  0.19183600  1
  H  H24  1  0.58528600  0.21114100  0.97043800  1
  H  H25  1  0.05253300  0.22872600  0.94264600  1
  H  H26  1  0.39514500  0.31835800  0.92329600  1
  H  H27  1  0.00958800  0.70938900  0.93596500  1
  H  H28  1  0.89514500  0.68164200  0.57670400  1
  H  H29  1  0.55253300  0.77127400  0.55735400  1
  H  H30  1  0.08528600  0.78885900  0.52956200  1
  H  H31  1  0.50958800  0.29061100  0.56403500  1
  H  H32  1  0.49041200  0.70938900  0.43596500  1
  H  H33  1  0.91471400  0.21114100  0.47043800  1
  H  H34  1  0.44746700  0.22872600  0.44264600  1
  H  H35  1  0.10485500  0.31835800  0.42329600  1
  H  H36  1  0.99041200  0.29061100  0.06403500  1
  H  H37  1  0.60485500  0.68164200  0.07670400  1
  H  H38  1  0.94746700  0.77127400  0.05735400  1
  H  H39  1  0.41471400  0.78885900  0.02956200  1
  O  O40  1  0.35412600  0.28286900  0.99898500  1
  O  O41  1  0.89003200  0.77313700  0.99647400  1
  O  O42  1  0.59660800  0.13496800  0.92526900  1
  O  O43  1  0.86767900  0.22164700  0.88850100  1
  O  O44  1  0.07202800  0.65114800  0.89979800  1
  O  O45  1  0.34072200  0.71880200  0.90139900  1
  O  O46  1  0.77483400  0.55223900  0.87840900  1
  O  O47  1  0.23702300  0.05206700  0.87966200  1
  O  O48  1  0.44241900  0.44840200  0.76952600  1
  O  O49  1  0.21333700  0.54567300  0.77641100  1
  O  O50  1  0.71894500  0.03413200  0.78515300  1
  O  O51  1  0.71333700  0.45432700  0.72358900  1
  O  O52  1  0.94241900  0.55159800  0.73047400  1
  O  O53  1  0.44187000  0.03825700  0.76875000  1
  O  O54  1  0.94187000  0.96174300  0.73125000  1
  O  O55  1  0.21894500  0.96586800  0.71484700  1
  O  O56  1  0.27483400  0.44776100  0.62159100  1
  O  O57  1  0.36767900  0.77835300  0.61149900  1
  O  O58  1  0.73702300  0.94793300  0.62033800  1
  O  O59  1  0.09660800  0.86503200  0.57473100  1
  O  O60  1  0.84072200  0.28119800  0.59860100  1
  O  O61  1  0.57202800  0.34885200  0.60020200  1
  O  O62  1  0.85412600  0.71713100  0.50101500  1
  O  O63  1  0.60996800  0.77313700  0.49647400  1
  O  O64  1  0.39003200  0.22686300  0.50352600  1
  O  O65  1  0.14587400  0.28286900  0.49898500  1
  O  O66  1  0.42797200  0.65114800  0.39979800  1
  O  O67  1  0.15927800  0.71880200  0.40139900  1
  O  O68  1  0.90339200  0.13496800  0.42526900  1
  O  O69  1  0.26297700  0.05206700  0.37966200  1
  O  O70  1  0.63232100  0.22164700  0.38850100  1
  O  O71  1  0.72516600  0.55223900  0.37840900  1
  O  O72  1  0.78105500  0.03413200  0.28515300  1
  O  O73  1  0.05813000  0.03825700  0.26875000  1
  O  O74  1  0.55813000  0.96174300  0.23125000  1
  O  O75  1  0.05758100  0.44840200  0.26952600  1
  O  O76  1  0.28666300  0.54567300  0.27641100  1
  O  O77  1  0.28105500  0.96586800  0.21484700  1
  O  O78  1  0.78666300  0.45432700  0.22358900  1
  O  O79  1  0.55758100  0.55159800  0.23047400  1
  O  O80  1  0.76297700  0.94793300  0.12033800  1
  O  O81  1  0.22516600  0.44776100  0.12159100  1
  O  O82  1  0.65927800  0.28119800  0.09860100  1
  O  O83  1  0.92797200  0.34885200  0.10020200  1
  O  O84  1  0.13232100  0.77835300  0.11149900  1
  O  O85  1  0.40339200  0.86503200  0.07473100  1
  O  O86  1  0.10996800  0.22686300  0.00352600  1
  O  O87  1  0.64587400  0.71713100  0.00101500  1
