# generated using pymatgen
data_Bi4O5F2
_symmetry_space_group_name_H-M   'P 1'
_cell_length_a   8.50262300
_cell_length_b   9.09274900
_cell_length_c   9.21765600
_cell_angle_alpha   90.00000000
_cell_angle_beta   90.00000000
_cell_angle_gamma   90.00000000
_symmetry_Int_Tables_number   1
_chemical_formula_structural   Bi4O5F2
_chemical_formula_sum   'Bi16 O20 F8'
_cell_volume   712.63741888
_cell_formula_units_Z   4
loop_
 _symmetry_equiv_pos_site_id
 _symmetry_equiv_pos_as_xyz
  1  'x, y, z'
loop_
 _atom_site_type_symbol
 _atom_site_label
 _atom_site_symmetry_multiplicity
 _atom_site_fract_x
 _atom_site_fract_y
 _atom_site_fract_z
 _atom_site_occupancy
  Bi  Bi0  1  0.75000000  0.43460700  0.01702500  1
  Bi  Bi1  1  0.25000000  0.99944400  0.04488900  1
  Bi  Bi2  1  0.96677700  0.79038600  0.23951200  1
  Bi  Bi3  1  0.53322300  0.79038600  0.23951200  1
  Bi  Bi4  1  0.03322300  0.29038600  0.26048800  1
  Bi  Bi5  1  0.46677700  0.29038600  0.26048800  1
  Bi  Bi6  1  0.75000000  0.49944400  0.45511100  1
  Bi  Bi7  1  0.25000000  0.93460700  0.48297500  1
  Bi  Bi8  1  0.75000000  0.06539300  0.51702500  1
  Bi  Bi9  1  0.25000000  0.50055600  0.54488900  1
  Bi  Bi10  1  0.53322300  0.70961400  0.73951200  1
  Bi  Bi11  1  0.96677700  0.70961400  0.73951200  1
  Bi  Bi12  1  0.03322300  0.20961400  0.76048800  1
  Bi  Bi13  1  0.46677700  0.20961400  0.76048800  1
  Bi  Bi14  1  0.75000000  0.00055600  0.95511100  1
  Bi  Bi15  1  0.25000000  0.56539300  0.98297500  1
  O  O16  1  0.06409200  0.83617700  0.02511200  1
  O  O17  1  0.43590800  0.83617700  0.02511200  1
  O  O18  1  0.56102700  0.49252100  0.16604800  1
  O  O19  1  0.93897300  0.49252100  0.16604800  1
  O  O20  1  0.75000000  0.92464100  0.17949900  1
  O  O21  1  0.25000000  0.42464100  0.32050100  1
  O  O22  1  0.06102700  0.99252100  0.33395200  1
  O  O23  1  0.43897300  0.99252100  0.33395200  1
  O  O24  1  0.56409200  0.33617700  0.47488800  1
  O  O25  1  0.93590800  0.33617700  0.47488800  1
  O  O26  1  0.06409200  0.66382300  0.52511200  1
  O  O27  1  0.43590800  0.66382300  0.52511200  1
  O  O28  1  0.56102700  0.00747900  0.66604800  1
  O  O29  1  0.93897300  0.00747900  0.66604800  1
  O  O30  1  0.75000000  0.57535900  0.67949900  1
  O  O31  1  0.25000000  0.07535900  0.82050100  1
  O  O32  1  0.06102700  0.50747900  0.83395200  1
  O  O33  1  0.43897300  0.50747900  0.83395200  1
  O  O34  1  0.56409200  0.16382300  0.97488800  1
  O  O35  1  0.93590800  0.16382300  0.97488800  1
  F  F36  1  0.25000000  0.32135900  0.02985100  1
  F  F37  1  0.75000000  0.25336700  0.21929300  1
  F  F38  1  0.25000000  0.75336700  0.28070700  1
  F  F39  1  0.75000000  0.82135900  0.47014900  1
  F  F40  1  0.25000000  0.17864100  0.52985100  1
  F  F41  1  0.75000000  0.24663300  0.71929300  1
  F  F42  1  0.25000000  0.74663300  0.78070700  1
  F  F43  1  0.75000000  0.67864100  0.97014900  1
