# generated using pymatgen
data_BiOF
_symmetry_space_group_name_H-M   'P 1'
_cell_length_a   3.98287900
_cell_length_b   5.93697900
_cell_length_c   8.20815100
_cell_angle_alpha   90.00000000
_cell_angle_beta   90.00000000
_cell_angle_gamma   90.00000000
_symmetry_Int_Tables_number   1
_chemical_formula_structural   BiOF
_chemical_formula_sum   'Bi4 O4 F4'
_cell_volume   194.09214640
_cell_formula_units_Z   4
loop_
 _symmetry_equiv_pos_site_id
 _symmetry_equiv_pos_as_xyz
  1  'x, y, z'
loop_
 _atom_site_type_symbol
 _atom_site_label
 _atom_site_symmetry_multiplicity
 _atom_site_fract_x
 _atom_site_fract_y
 _atom_site_fract_z
 _atom_site_occupancy
  Bi  Bi0  1  0.25000000  0.29533200  0.11311800  1
  Bi  Bi1  1  0.75000000  0.79533200  0.38688200  1
  Bi  Bi2  1  0.25000000  0.20466800  0.61311800  1
  Bi  Bi3  1  0.75000000  0.70466800  0.88688200  1
  O  O4  1  0.75000000  0.49023400  0.11465300  1
  O  O5  1  0.25000000  0.99023400  0.38534700  1
  O  O6  1  0.75000000  0.00976600  0.61465300  1
  O  O7  1  0.25000000  0.50976600  0.88534700  1
  F  F8  1  0.75000000  0.98114400  0.12665600  1
  F  F9  1  0.25000000  0.48114400  0.37334400  1
  F  F10  1  0.75000000  0.51885600  0.62665600  1
  F  F11  1  0.25000000  0.01885600  0.87334400  1
