# generated using pymatgen
data_Sb3O2F5
_symmetry_space_group_name_H-M   'P 1'
_cell_length_a   5.69688000
_cell_length_b   6.60417700
_cell_length_c   18.52391600
_cell_angle_alpha   90.00000000
_cell_angle_beta   90.00000000
_cell_angle_gamma   90.00000000
_symmetry_Int_Tables_number   1
_chemical_formula_structural   Sb3O2F5
_chemical_formula_sum   'Sb12 O8 F20'
_cell_volume   696.92906810
_cell_formula_units_Z   4
loop_
 _symmetry_equiv_pos_site_id
 _symmetry_equiv_pos_as_xyz
  1  'x, y, z'
loop_
 _atom_site_type_symbol
 _atom_site_label
 _atom_site_symmetry_multiplicity
 _atom_site_fract_x
 _atom_site_fract_y
 _atom_site_fract_z
 _atom_site_occupancy
  Sb  Sb0  1  0.11944800  0.53840600  0.60087600  1
  Sb  Sb1  1  0.11944800  0.53840600  0.89912400  1
  Sb  Sb2  1  0.28543500  0.95301800  0.75000000  1
  Sb  Sb3  1  0.21456500  0.45301800  0.25000000  1
  Sb  Sb4  1  0.38055200  0.03840600  0.10087600  1
  Sb  Sb5  1  0.38055200  0.03840600  0.39912400  1
  Sb  Sb6  1  0.61944800  0.96159400  0.89912400  1
  Sb  Sb7  1  0.61944800  0.96159400  0.60087600  1
  Sb  Sb8  1  0.78543500  0.54698200  0.75000000  1
  Sb  Sb9  1  0.71456500  0.04698200  0.25000000  1
  Sb  Sb10  1  0.88055200  0.46159400  0.39912400  1
  Sb  Sb11  1  0.88055200  0.46159400  0.10087600  1
  O  O12  1  0.04394600  0.28247900  0.17396200  1
  O  O13  1  0.04394600  0.28247900  0.32603800  1
  O  O14  1  0.45605400  0.78247900  0.82603800  1
  O  O15  1  0.45605400  0.78247900  0.67396200  1
  O  O16  1  0.54394600  0.21752100  0.17396200  1
  O  O17  1  0.54394600  0.21752100  0.32603800  1
  O  O18  1  0.95605400  0.71752100  0.67396200  1
  O  O19  1  0.95605400  0.71752100  0.82603800  1
  F  F20  1  0.09945800  0.39016000  0.75000000  1
  F  F21  1  0.08860700  0.32322200  0.02781100  1
  F  F22  1  0.08860700  0.32322200  0.47218900  1
  F  F23  1  0.15053500  0.65164500  0.38048000  1
  F  F24  1  0.15053500  0.65164500  0.11952000  1
  F  F25  1  0.34946500  0.15164500  0.88048000  1
  F  F26  1  0.34946500  0.15164500  0.61952000  1
  F  F27  1  0.41139300  0.82322200  0.52781100  1
  F  F28  1  0.41139300  0.82322200  0.97218900  1
  F  F29  1  0.40054200  0.89016000  0.25000000  1
  F  F30  1  0.59945800  0.10984000  0.75000000  1
  F  F31  1  0.58860700  0.17677800  0.02781100  1
  F  F32  1  0.58860700  0.17677800  0.47218900  1
  F  F33  1  0.65053500  0.84835500  0.38048000  1
  F  F34  1  0.65053500  0.84835500  0.11952000  1
  F  F35  1  0.84946500  0.34835500  0.61952000  1
  F  F36  1  0.84946500  0.34835500  0.88048000  1
  F  F37  1  0.91139300  0.67677800  0.97218900  1
  F  F38  1  0.91139300  0.67677800  0.52781100  1
  F  F39  1  0.90054200  0.60984000  0.25000000  1
