# generated using pymatgen
data_NbSb3O8
_symmetry_space_group_name_H-M   'P 1'
_cell_length_a   4.97231100
_cell_length_b   5.59148577
_cell_length_c   23.90823834
_cell_angle_alpha   90.11138654
_cell_angle_beta   90.00648489
_cell_angle_gamma   90.08233442
_symmetry_Int_Tables_number   1
_chemical_formula_structural   NbSb3O8
_chemical_formula_sum   'Nb4 Sb12 O32'
_cell_volume   664.70938901
_cell_formula_units_Z   4
loop_
 _symmetry_equiv_pos_site_id
 _symmetry_equiv_pos_as_xyz
  1  'x, y, z'
loop_
 _atom_site_type_symbol
 _atom_site_label
 _atom_site_symmetry_multiplicity
 _atom_site_fract_x
 _atom_site_fract_y
 _atom_site_fract_z
 _atom_site_occupancy
  Nb  Nb0  1  0.00279100  0.13095300  0.03622900  1
  Nb  Nb1  1  0.49191200  0.38762300  0.28557000  1
  Nb  Nb2  1  0.99776800  0.86896400  0.78633300  1
  Nb  Nb3  1  0.00654600  0.88713600  0.28564000  1
  Sb  Sb4  1  0.54387100  0.02429200  0.66012000  1
  Sb  Sb5  1  0.54672900  0.02906800  0.16082200  1
  Sb  Sb6  1  0.99955700  0.13280200  0.53570500  1
  Sb  Sb7  1  0.49549700  0.36875200  0.78422200  1
  Sb  Sb8  1  0.04648100  0.47255900  0.90963800  1
  Sb  Sb9  1  0.04438600  0.47576900  0.41064400  1
  Sb  Sb10  1  0.95742800  0.52916700  0.66020900  1
  Sb  Sb11  1  0.95040300  0.52705400  0.15967500  1
  Sb  Sb12  1  0.49992700  0.63263700  0.53552000  1
  Sb  Sb13  1  0.50513000  0.63070700  0.03434100  1
  Sb  Sb14  1  0.45518900  0.97487900  0.91070400  1
  Sb  Sb15  1  0.45537200  0.97659900  0.41061900  1
  O  O16  1  0.29594400  0.07901600  0.75706500  1
  O  O17  1  0.29733800  0.06975600  0.25624800  1
  O  O18  1  0.78673100  0.14251400  0.80950600  1
  O  O19  1  0.78447200  0.13492600  0.31015700  1
  O  O20  1  0.16266000  0.15295700  0.45635700  1
  O  O21  1  0.16691000  0.15317600  0.95559000  1
  O  O22  1  0.84248500  0.18208500  0.61235300  1
  O  O23  1  0.84000100  0.18389800  0.11208300  1
  O  O24  1  0.34230900  0.31619600  0.86198400  1
  O  O25  1  0.33527800  0.31405500  0.36224700  1
  O  O26  1  0.66732700  0.34761200  0.70554900  1
  O  O27  1  0.66898900  0.34695500  0.20658000  1
  O  O28  1  0.28977500  0.35567200  0.56370900  1
  O  O29  1  0.28786500  0.35982400  0.06160700  1
  O  O30  1  0.79152500  0.41842400  0.00567400  1
  O  O31  1  0.79385300  0.41823500  0.50493500  1
  O  O32  1  0.20881900  0.58094700  0.75559900  1
  O  O33  1  0.20307100  0.57031500  0.25641700  1
  O  O34  1  0.71583600  0.63511000  0.31023400  1
  O  O35  1  0.71247900  0.64035600  0.81158700  1
  O  O36  1  0.33429000  0.65211700  0.95599200  1
  O  O37  1  0.33712900  0.65288300  0.45626300  1
  O  O38  1  0.65690800  0.68219000  0.61196600  1
  O  O39  1  0.65710800  0.68443400  0.11215100  1
  O  O40  1  0.16102800  0.81672900  0.86235000  1
  O  O41  1  0.16472800  0.81442400  0.36217200  1
  O  O42  1  0.83208200  0.84677600  0.70578400  1
  O  O43  1  0.83052800  0.84686000  0.20600500  1
  O  O44  1  0.20990000  0.85567400  0.56360300  1
  O  O45  1  0.21379000  0.85794100  0.05939700  1
  O  O46  1  0.70585500  0.91840800  0.50491100  1
  O  O47  1  0.70400100  0.92057700  0.00713200  1
