# generated using pymatgen
data_Ba16S16O59
_symmetry_space_group_name_H-M   'P 1'
_cell_length_a   8.96161600
_cell_length_b   11.13839770
_cell_length_c   14.54172408
_cell_angle_alpha   90.00338559
_cell_angle_beta   90.06392806
_cell_angle_gamma   90.02024674
_symmetry_Int_Tables_number   1
_chemical_formula_structural   Ba16S16O59
_chemical_formula_sum   'Ba16 S16 O59'
_cell_volume   1451.52544256
_cell_formula_units_Z   1
loop_
 _symmetry_equiv_pos_site_id
 _symmetry_equiv_pos_as_xyz
  1  'x, y, z'
loop_
 _atom_site_type_symbol
 _atom_site_label
 _atom_site_symmetry_multiplicity
 _atom_site_fract_x
 _atom_site_fract_y
 _atom_site_fract_z
 _atom_site_occupancy
  Ba  Ba0  1  0.18544400  0.86449800  0.92409000  1
  Ba  Ba1  1  0.17761500  0.87453500  0.42685100  1
  Ba  Ba2  1  0.18515100  0.38534900  0.92423700  1
  Ba  Ba3  1  0.17927600  0.37555300  0.42916200  1
  Ba  Ba4  1  0.32243600  0.62009100  0.68105200  1
  Ba  Ba5  1  0.32109600  0.13007400  0.67363700  1
  Ba  Ba6  1  0.31998500  0.62507100  0.16895600  1
  Ba  Ba7  1  0.32194800  0.12495200  0.17011600  1
  Ba  Ba8  1  0.68457200  0.88481500  0.82042700  1
  Ba  Ba9  1  0.69356900  0.87587700  0.33085500  1
  Ba  Ba10  1  0.68855800  0.36476600  0.82482900  1
  Ba  Ba11  1  0.69263900  0.37397900  0.32930200  1
  Ba  Ba12  1  0.81288600  0.63027700  0.57384100  1
  Ba  Ba13  1  0.81619800  0.62558700  0.08162200  1
  Ba  Ba14  1  0.81192900  0.11976500  0.57521400  1
  Ba  Ba15  1  0.81731000  0.12409800  0.07382300  1
  S  S16  1  0.06511300  0.87663300  0.65637800  1
  S  S17  1  0.06007400  0.37342700  0.65680600  1
  S  S18  1  0.05917900  0.87497700  0.15752100  1
  S  S19  1  0.05941000  0.37499200  0.15729800  1
  S  S20  1  0.45192400  0.62487900  0.91369600  1
  S  S21  1  0.43518100  0.62683900  0.40519400  1
  S  S22  1  0.43461700  0.12523800  0.90611500  1
  S  S23  1  0.43534500  0.12320300  0.40528300  1
  S  S24  1  0.54750300  0.87445400  0.58600500  1
  S  S25  1  0.55857000  0.87353100  0.09375600  1
  S  S26  1  0.55990600  0.37498200  0.59388100  1
  S  S27  1  0.55855100  0.37646200  0.09381300  1
  S  S28  1  0.95218700  0.12563700  0.33601900  1
  S  S29  1  0.93465800  0.62514100  0.84520800  1
  S  S30  1  0.95280000  0.62438200  0.33609800  1
  S  S31  1  0.95167700  0.12494600  0.83762600  1
  O  O32  1  0.08549800  0.98574800  0.59614900  1
  O  O33  1  0.09044900  0.76745700  0.59739900  1
  O  O34  1  0.08492500  0.48288400  0.59837400  1
  O  O35  1  0.07974700  0.26400400  0.59705400  1
  O  O36  1  0.08146000  0.48499300  0.09831900  1
  O  O37  1  0.08375800  0.26597700  0.09830600  1
  O  O38  1  0.08182400  0.76501800  0.09867700  1
  O  O39  1  0.08418700  0.98396900  0.09867700  1
  O  O40  1  0.08744100  0.62518600  0.80705700  1
  O  O41  1  0.18125300  0.88093800  0.72967100  1
  O  O42  1  0.17257800  0.87405700  0.23275500  1
  O  O43  1  0.17619200  0.36909900  0.73047800  1
  O  O44  1  0.17319600  0.37589900  0.23216200  1
  O  O45  1  0.31583800  0.62453100  0.97864700  1
  O  O46  1  0.31899700  0.63071700  0.47875100  1
  O  O47  1  0.31752100  0.12562000  0.97849000  1
  O  O48  1  0.31953900  0.11915500  0.47920800  1
  O  O49  1  0.40490800  0.87582700  0.05706800  1
  O  O50  1  0.40701900  0.37494700  0.55590600  1
  O  O51  1  0.40513500  0.37412700  0.05700300  1
  O  O52  1  0.42716200  0.73447000  0.84987500  1
  O  O53  1  0.41502500  0.73597300  0.34512100  1
  O  O54  1  0.42770100  0.51499200  0.84974800  1
  O  O55  1  0.41020500  0.51761100  0.34611400  1
  O  O56  1  0.41355000  0.23405300  0.84583100  1
  O  O57  1  0.40963900  0.23232900  0.34634900  1
  O  O58  1  0.41285800  0.01659300  0.84599100  1
  O  O59  1  0.41435200  0.01422300  0.34525600  1
  O  O60  1  0.56820700  0.98516100  0.65001400  1
  O  O61  1  0.57204500  0.76575800  0.65066900  1
  O  O62  1  0.58116500  0.48353200  0.65369000  1
  O  O63  1  0.58225700  0.98297000  0.15247500  1
  O  O64  1  0.57751000  0.76410700  0.15360600  1
  O  O65  1  0.57762400  0.48583300  0.15374200  1
  O  O66  1  0.57916500  0.26539000  0.65353900  1
  O  O67  1  0.58235800  0.26707300  0.15256400  1
  O  O68  1  0.58707000  0.12530400  0.94442500  1
  O  O69  1  0.58790600  0.62454200  0.44282400  1
  O  O70  1  0.58793800  0.12555600  0.44272900  1
  O  O71  1  0.68475000  0.87593900  0.52280400  1
  O  O72  1  0.67698800  0.37420500  0.52160000  1
  O  O73  1  0.67399200  0.86928300  0.02023000  1
  O  O74  1  0.67416300  0.38079800  0.02041000  1
  O  O75  1  0.81742900  0.62494600  0.77288500  1
  O  O76  1  0.81771100  0.62532500  0.27136000  1
  O  O77  1  0.81520000  0.12506000  0.77298700  1
  O  O78  1  0.81636400  0.12466100  0.27212000  1
  O  O79  1  0.90494100  0.87512000  0.19223700  1
  O  O80  1  0.90521100  0.37487300  0.19231900  1
  O  O81  1  0.91209800  0.87431700  0.69283200  1
  O  O82  1  0.90724900  0.37574700  0.69366300  1
  O  O83  1  0.92837800  0.23420700  0.40127800  1
  O  O84  1  0.93136100  0.01546400  0.40050800  1
  O  O85  1  0.91387000  0.73394000  0.90542500  1
  O  O86  1  0.93058100  0.73449000  0.40027400  1
  O  O87  1  0.91419900  0.51620800  0.90551000  1
  O  O88  1  0.92761500  0.51587500  0.40100300  1
  O  O89  1  0.92833000  0.23482100  0.90185800  1
  O  O90  1  0.92836800  0.01508600  0.90156700  1
