# generated using pymatgen
data_Bi6O5F8
_symmetry_space_group_name_H-M   'P 1'
_cell_length_a   5.77175000
_cell_length_b   5.86703400
_cell_length_c   34.51274118
_cell_angle_alpha   89.85262143
_cell_angle_beta   90.00000000
_cell_angle_gamma   90.00000000
_symmetry_Int_Tables_number   1
_chemical_formula_structural   Bi6O5F8
_chemical_formula_sum   'Bi24 O20 F32'
_cell_volume   1168.70293416
_cell_formula_units_Z   4
loop_
 _symmetry_equiv_pos_site_id
 _symmetry_equiv_pos_as_xyz
  1  'x, y, z'
loop_
 _atom_site_type_symbol
 _atom_site_label
 _atom_site_symmetry_multiplicity
 _atom_site_fract_x
 _atom_site_fract_y
 _atom_site_fract_z
 _atom_site_occupancy
  Bi  Bi0  1  0.74735900  0.71717800  0.00017900  1
  Bi  Bi1  1  0.75264100  0.71717800  0.50017900  1
  Bi  Bi2  1  0.29084900  0.72714200  0.25137400  1
  Bi  Bi3  1  0.20915100  0.72714200  0.75137400  1
  Bi  Bi4  1  0.73233500  0.71301200  0.33540100  1
  Bi  Bi5  1  0.79647400  0.70586700  0.66545000  1
  Bi  Bi6  1  0.76766500  0.71301200  0.83540100  1
  Bi  Bi7  1  0.70352600  0.70586700  0.16545000  1
  Bi  Bi8  1  0.27351200  0.70657600  0.08239900  1
  Bi  Bi9  1  0.28194200  0.70715200  0.41718100  1
  Bi  Bi10  1  0.22648800  0.70657600  0.58239900  1
  Bi  Bi11  1  0.21805800  0.70715200  0.91718100  1
  Bi  Bi12  1  0.78194200  0.29284800  0.08281900  1
  Bi  Bi13  1  0.72648800  0.29342400  0.91760100  1
  Bi  Bi14  1  0.71805800  0.29284800  0.58281900  1
  Bi  Bi15  1  0.77351200  0.29342400  0.41760100  1
  Bi  Bi16  1  0.23233500  0.28698800  0.16459900  1
  Bi  Bi17  1  0.29647400  0.29413300  0.83455000  1
  Bi  Bi18  1  0.26766500  0.28698800  0.66459900  1
  Bi  Bi19  1  0.20352600  0.29413300  0.33455000  1
  Bi  Bi20  1  0.70915100  0.27285800  0.74862600  1
  Bi  Bi21  1  0.79084900  0.27285800  0.24862600  1
  Bi  Bi22  1  0.24735900  0.28282200  0.49982100  1
  Bi  Bi23  1  0.25264100  0.28282200  0.99982100  1
  O  O24  1  0.01320900  0.52401800  0.28978300  1
  O  O25  1  0.48679100  0.52401800  0.78978300  1
  O  O26  1  0.50935500  0.52124900  0.87390600  1
  O  O27  1  0.50943500  0.51579100  0.62704700  1
  O  O28  1  0.99064500  0.52124900  0.37390600  1
  O  O29  1  0.99056500  0.51579100  0.12704700  1
  O  O30  1  0.48319000  0.50834600  0.54198500  1
  O  O31  1  0.01681000  0.50834600  0.04198500  1
  O  O32  1  0.01749600  0.50981900  0.45778800  1
  O  O33  1  0.48250400  0.50981900  0.95778800  1
  O  O34  1  0.98250400  0.49018100  0.54221200  1
  O  O35  1  0.51681000  0.49165400  0.45801500  1
  O  O36  1  0.51749600  0.49018100  0.04221200  1
  O  O37  1  0.98319000  0.49165400  0.95801500  1
  O  O38  1  0.00943500  0.48420900  0.87295300  1
  O  O39  1  0.00935500  0.47875100  0.62609400  1
  O  O40  1  0.49056500  0.48420900  0.37295300  1
  O  O41  1  0.49064500  0.47875100  0.12609400  1
  O  O42  1  0.51320900  0.47598200  0.21021700  1
  O  O43  1  0.98679100  0.47598200  0.71021700  1
  F  F44  1  0.42976500  0.96521900  0.03593200  1
  F  F45  1  0.43227200  0.97167100  0.46324600  1
  F  F46  1  0.07023500  0.96521900  0.53593200  1
  F  F47  1  0.06772800  0.97167100  0.96324600  1
  F  F48  1  0.61450700  0.92362600  0.11044100  1
  F  F49  1  0.62978200  0.92063900  0.38991700  1
  F  F50  1  0.88549300  0.92362600  0.61044100  1
  F  F51  1  0.87021800  0.92063900  0.88991700  1
  F  F52  1  0.35013400  0.89060900  0.18105700  1
  F  F53  1  0.35425300  0.87222500  0.31483300  1
  F  F54  1  0.14574700  0.87222500  0.81483300  1
  F  F55  1  0.14986600  0.89060900  0.68105700  1
  F  F56  1  0.66455300  0.88357400  0.25170100  1
  F  F57  1  0.83544700  0.88357400  0.75170100  1
  F  F58  1  0.48879600  0.53897700  0.70919600  1
  F  F59  1  0.01120400  0.53897700  0.20919600  1
  F  F60  1  0.51120400  0.46102300  0.29080400  1
  F  F61  1  0.98879600  0.46102300  0.79080400  1
  F  F62  1  0.33544700  0.11642600  0.74829900  1
  F  F63  1  0.16455300  0.11642600  0.24829900  1
  F  F64  1  0.85425300  0.12777500  0.18516700  1
  F  F65  1  0.64986600  0.10939100  0.81894300  1
  F  F66  1  0.85013400  0.10939100  0.31894300  1
  F  F67  1  0.64574700  0.12777500  0.68516700  1
  F  F68  1  0.37021800  0.07936100  0.61008300  1
  F  F69  1  0.12978200  0.07936100  0.11008300  1
  F  F70  1  0.38549300  0.07637400  0.88955900  1
  F  F71  1  0.11450700  0.07637400  0.38955900  1
  F  F72  1  0.93227200  0.02832900  0.03675400  1
  F  F73  1  0.92976500  0.03478100  0.46406800  1
  F  F74  1  0.56772800  0.02832900  0.53675400  1
  F  F75  1  0.57023500  0.03478100  0.96406800  1
