# generated using pymatgen
data_Ba2SrI6
_symmetry_space_group_name_H-M   'P 1'
_cell_length_a   9.22998929
_cell_length_b   9.22998929
_cell_length_c   5.07947000
_cell_angle_alpha   90.00000000
_cell_angle_beta   90.00000000
_cell_angle_gamma   119.99999493
_symmetry_Int_Tables_number   1
_chemical_formula_structural   Ba2SrI6
_chemical_formula_sum   'Ba2 Sr1 I6'
_cell_volume   374.75846204
_cell_formula_units_Z   1
loop_
 _symmetry_equiv_pos_site_id
 _symmetry_equiv_pos_as_xyz
  1  'x, y, z'
loop_
 _atom_site_type_symbol
 _atom_site_label
 _atom_site_symmetry_multiplicity
 _atom_site_fract_x
 _atom_site_fract_y
 _atom_site_fract_z
 _atom_site_occupancy
  Ba  Ba0  1  0.33333300  0.66666700  0.50000000  1
  Ba  Ba1  1  0.66666700  0.33333300  0.50000000  1
  Sr  Sr2  1  0.00000000  0.00000000  0.00000000  1
  I  I3  1  0.00000000  0.59722100  0.00000000  1
  I  I4  1  0.00000000  0.25094100  0.50000000  1
  I  I5  1  0.40277900  0.40277900  0.00000000  1
  I  I6  1  0.25094100  0.00000000  0.50000000  1
  I  I7  1  0.74905900  0.74905900  0.50000000  1
  I  I8  1  0.59722100  0.00000000  0.00000000  1
