# generated using pymatgen
data_Sr2Bi2O5
_symmetry_space_group_name_H-M   'P 1'
_cell_length_a   6.25519500
_cell_length_b   7.57612100
_cell_length_c   7.75618494
_cell_angle_alpha   75.28639448
_cell_angle_beta   90.00000000
_cell_angle_gamma   90.00000000
_symmetry_Int_Tables_number   1
_chemical_formula_structural   Sr2Bi2O5
_chemical_formula_sum   'Sr4 Bi4 O10'
_cell_volume   355.51305430
_cell_formula_units_Z   2
loop_
 _symmetry_equiv_pos_site_id
 _symmetry_equiv_pos_as_xyz
  1  'x, y, z'
loop_
 _atom_site_type_symbol
 _atom_site_label
 _atom_site_symmetry_multiplicity
 _atom_site_fract_x
 _atom_site_fract_y
 _atom_site_fract_z
 _atom_site_occupancy
  Sr  Sr0  1  0.75000000  0.60681300  0.84879700  1
  Sr  Sr1  1  0.25000000  0.39318700  0.15120300  1
  Sr  Sr2  1  0.75000000  0.62944500  0.34242900  1
  Sr  Sr3  1  0.25000000  0.37055500  0.65757100  1
  Bi  Bi4  1  0.75000000  0.12317700  0.96146600  1
  Bi  Bi5  1  0.25000000  0.87682300  0.03853400  1
  Bi  Bi6  1  0.75000000  0.12965200  0.47464400  1
  Bi  Bi7  1  0.25000000  0.87034800  0.52535600  1
  O  O8  1  0.25000000  0.98611500  0.75342400  1
  O  O9  1  0.50866600  0.31941200  0.92575400  1
  O  O10  1  0.99133400  0.31941200  0.92575400  1
  O  O11  1  0.75000000  0.01388500  0.24657600  1
  O  O12  1  0.00866600  0.68058800  0.07424600  1
  O  O13  1  0.49133400  0.68058800  0.07424600  1
  O  O14  1  0.99213300  0.32437400  0.41305900  1
  O  O15  1  0.50786700  0.32437400  0.41305900  1
  O  O16  1  0.00786700  0.67562600  0.58694100  1
  O  O17  1  0.49213300  0.67562600  0.58694100  1
