# generated using pymatgen
data_CuCO3
_symmetry_space_group_name_H-M   'P 1'
_cell_length_a   6.80415700
_cell_length_b   6.21769600
_cell_length_c   8.25599218
_cell_angle_alpha   53.16552501
_cell_angle_beta   90.00000000
_cell_angle_gamma   90.00000000
_symmetry_Int_Tables_number   1
_chemical_formula_structural   CuCO3
_chemical_formula_sum   'Cu4 C4 O12'
_cell_volume   279.55310147
_cell_formula_units_Z   4
loop_
 _symmetry_equiv_pos_site_id
 _symmetry_equiv_pos_as_xyz
  1  'x, y, z'
loop_
 _atom_site_type_symbol
 _atom_site_label
 _atom_site_symmetry_multiplicity
 _atom_site_fract_x
 _atom_site_fract_y
 _atom_site_fract_z
 _atom_site_occupancy
  Cu  Cu0  1  0.51298900  0.73747500  0.51195400  1
  Cu  Cu1  1  0.01298900  0.26252500  0.98804600  1
  Cu  Cu2  1  0.98701100  0.73747500  0.01195400  1
  Cu  Cu3  1  0.48701100  0.26252500  0.48804600  1
  C  C4  1  0.16468000  0.73994500  0.69437400  1
  C  C5  1  0.66468000  0.26005500  0.80562600  1
  C  C6  1  0.33532000  0.73994500  0.19437400  1
  C  C7  1  0.83532000  0.26005500  0.30562600  1
  O  O8  1  0.31003600  0.89103900  0.58182500  1
  O  O9  1  0.64861200  0.49713600  0.76064200  1
  O  O10  1  0.14861200  0.50286400  0.73935800  1
  O  O11  1  0.96161100  0.16485200  0.24671700  1
  O  O12  1  0.81003600  0.10896100  0.91817500  1
  O  O13  1  0.46161100  0.83514800  0.25328300  1
  O  O14  1  0.53838900  0.16485200  0.74671700  1
  O  O15  1  0.18996400  0.89103900  0.08182500  1
  O  O16  1  0.03838900  0.83514800  0.75328300  1
  O  O17  1  0.85138800  0.49713600  0.26064200  1
  O  O18  1  0.35138800  0.50286400  0.23935800  1
  O  O19  1  0.68996400  0.10896100  0.41817500  1
