# generated using pymatgen
data_SbOF
_symmetry_space_group_name_H-M   'P 1'
_cell_length_a   4.15738500
_cell_length_b   5.82045400
_cell_length_c   8.92841100
_cell_angle_alpha   90.00000000
_cell_angle_beta   90.00000000
_cell_angle_gamma   90.00000000
_symmetry_Int_Tables_number   1
_chemical_formula_structural   SbOF
_chemical_formula_sum   'Sb4 O4 F4'
_cell_volume   216.04851219
_cell_formula_units_Z   4
loop_
 _symmetry_equiv_pos_site_id
 _symmetry_equiv_pos_as_xyz
  1  'x, y, z'
loop_
 _atom_site_type_symbol
 _atom_site_label
 _atom_site_symmetry_multiplicity
 _atom_site_fract_x
 _atom_site_fract_y
 _atom_site_fract_z
 _atom_site_occupancy
  Sb  Sb0  1  0.25000000  0.29508800  0.56921700  1
  Sb  Sb1  1  0.75000000  0.70491200  0.43078300  1
  Sb  Sb2  1  0.75000000  0.79508800  0.93078300  1
  Sb  Sb3  1  0.25000000  0.20491200  0.06921700  1
  O  O4  1  0.25000000  0.59079600  0.44879100  1
  O  O5  1  0.25000000  0.90920400  0.94879100  1
  O  O6  1  0.75000000  0.09079600  0.05120900  1
  O  O7  1  0.75000000  0.40920400  0.55120900  1
  F  F8  1  0.75000000  0.94307300  0.72892000  1
  F  F9  1  0.75000000  0.55692700  0.22892000  1
  F  F10  1  0.25000000  0.44307300  0.77108000  1
  F  F11  1  0.25000000  0.05692700  0.27108000  1
