# generated using pymatgen
data_Na3BiO3
_symmetry_space_group_name_H-M   'P 1'
_cell_length_a   10.34101100
_cell_length_b   10.35410945
_cell_length_c   11.33847476
_cell_angle_alpha   108.59932792
_cell_angle_beta   113.44722661
_cell_angle_gamma   89.07426693
_symmetry_Int_Tables_number   1
_chemical_formula_structural   Na3BiO3
_chemical_formula_sum   'Na24 Bi8 O24'
_cell_volume   1047.01723769
_cell_formula_units_Z   8
loop_
 _symmetry_equiv_pos_site_id
 _symmetry_equiv_pos_as_xyz
  1  'x, y, z'
loop_
 _atom_site_type_symbol
 _atom_site_label
 _atom_site_symmetry_multiplicity
 _atom_site_fract_x
 _atom_site_fract_y
 _atom_site_fract_z
 _atom_site_occupancy
  Na  Na0  1  0.48859800  0.08017200  0.91351900  1
  Na  Na1  1  0.35182400  0.07730100  0.52769100  1
  Na  Na2  1  0.89962500  0.09038900  0.48722700  1
  Na  Na3  1  0.60996000  0.15323300  0.35898700  1
  Na  Na4  1  0.43535000  0.29664000  0.77386200  1
  Na  Na5  1  0.13640700  0.33036500  0.58538000  1
  Na  Na6  1  0.89411700  0.34911500  0.65985700  1
  Na  Na7  1  0.27152100  0.49549000  0.94198800  1
  Na  Na8  1  0.57225800  0.40925700  0.61591200  1
  Na  Na9  1  0.87470900  0.51872600  0.89154200  1
  Na  Na10  1  0.51326500  0.32781800  0.15847400  1
  Na  Na11  1  0.27770000  0.53669000  0.55467000  1
  Na  Na12  1  0.72230000  0.46331000  0.44533000  1
  Na  Na13  1  0.48673500  0.67218200  0.84152600  1
  Na  Na14  1  0.12529100  0.48127400  0.10845800  1
  Na  Na15  1  0.42774200  0.59074300  0.38408800  1
  Na  Na16  1  0.72847900  0.50451000  0.05801200  1
  Na  Na17  1  0.10588300  0.65088500  0.34014300  1
  Na  Na18  1  0.86359300  0.66963500  0.41462000  1
  Na  Na19  1  0.56465000  0.70336000  0.22613800  1
  Na  Na20  1  0.39004000  0.84676700  0.64101300  1
  Na  Na21  1  0.10037500  0.90961100  0.51277300  1
  Na  Na22  1  0.64817600  0.92269900  0.47230900  1
  Na  Na23  1  0.51140200  0.91982800  0.08648100  1
  Bi  Bi24  1  0.15286700  0.17749600  0.84595400  1
  Bi  Bi25  1  0.73415600  0.16579400  0.78305400  1
  Bi  Bi26  1  0.28986500  0.27034800  0.32082100  1
  Bi  Bi27  1  0.83592200  0.26504500  0.23491200  1
  Bi  Bi28  1  0.16407800  0.73495500  0.76508800  1
  Bi  Bi29  1  0.71013500  0.72965200  0.67917900  1
  Bi  Bi30  1  0.26584400  0.83420600  0.21694600  1
  Bi  Bi31  1  0.84713300  0.82250400  0.15404600  1
  O  O32  1  0.52925700  0.06645400  0.72135700  1
  O  O33  1  0.13412200  0.13655400  0.64551100  1
  O  O34  1  0.73604400  0.14917700  0.59192600  1
  O  O35  1  0.36086800  0.27903600  0.93811200  1
  O  O36  1  0.05530700  0.36066400  0.87597000  1
  O  O37  1  0.64327400  0.13435500  0.15059900  1
  O  O38  1  0.67535400  0.36498700  0.83354700  1
  O  O39  1  0.33113500  0.29849700  0.52643800  1
  O  O40  1  0.88626800  0.29156300  0.44082200  1
  O  O41  1  0.49557600  0.34906900  0.36353900  1
  O  O42  1  0.25830900  0.55107300  0.75831100  1
  O  O43  1  0.79371800  0.54580500  0.68216200  1
  O  O44  1  0.20628200  0.45419500  0.31783800  1
  O  O45  1  0.74169100  0.44892700  0.24168900  1
  O  O46  1  0.50442400  0.65093100  0.63646100  1
  O  O47  1  0.11373200  0.70843700  0.55917800  1
  O  O48  1  0.66886500  0.70150300  0.47356200  1
  O  O49  1  0.32464600  0.63501300  0.16645300  1
  O  O50  1  0.35672600  0.86564500  0.84940100  1
  O  O51  1  0.94469300  0.63933600  0.12403000  1
  O  O52  1  0.63913200  0.72096400  0.06188800  1
  O  O53  1  0.26395600  0.85082300  0.40807400  1
  O  O54  1  0.86587800  0.86344600  0.35448900  1
  O  O55  1  0.47074300  0.93354600  0.27864300  1
