# generated using pymatgen
data_MnBO3
_symmetry_space_group_name_H-M   'P 1'
_cell_length_a   5.66321293
_cell_length_b   5.66321293
_cell_length_c   5.66321258
_cell_angle_alpha   48.98221107
_cell_angle_beta   48.98221107
_cell_angle_gamma   48.98220845
_symmetry_Int_Tables_number   1
_chemical_formula_structural   MnBO3
_chemical_formula_sum   'Mn2 B2 O6'
_cell_volume   94.93483851
_cell_formula_units_Z   2
loop_
 _symmetry_equiv_pos_site_id
 _symmetry_equiv_pos_as_xyz
  1  'x, y, z'
loop_
 _atom_site_type_symbol
 _atom_site_label
 _atom_site_symmetry_multiplicity
 _atom_site_fract_x
 _atom_site_fract_y
 _atom_site_fract_z
 _atom_site_occupancy
  Mn  Mn0  1  0.50000000  0.50000000  0.50000000  1
  Mn  Mn1  1  0.00000000  0.00000000  0.00000000  1
  B  B2  1  0.75000000  0.75000000  0.75000000  1
  B  B3  1  0.25000000  0.25000000  0.25000000  1
  O  O4  1  0.45497000  0.75000000  0.04503000  1
  O  O5  1  0.95497000  0.54503000  0.25000000  1
  O  O6  1  0.25000000  0.95497000  0.54503000  1
  O  O7  1  0.75000000  0.04503000  0.45497000  1
  O  O8  1  0.04503000  0.45497000  0.75000000  1
  O  O9  1  0.54503000  0.25000000  0.95497000  1
