# generated using pymatgen
data_Na8SnO6
_symmetry_space_group_name_H-M   'P 1'
_cell_length_a   6.48937646
_cell_length_b   6.48937646
_cell_length_c   12.86983600
_cell_angle_alpha   90.00000000
_cell_angle_beta   90.00000000
_cell_angle_gamma   120.00000467
_symmetry_Int_Tables_number   1
_chemical_formula_structural   Na8SnO6
_chemical_formula_sum   'Na16 Sn2 O12'
_cell_volume   469.36376822
_cell_formula_units_Z   2
loop_
 _symmetry_equiv_pos_site_id
 _symmetry_equiv_pos_as_xyz
  1  'x, y, z'
loop_
 _atom_site_type_symbol
 _atom_site_label
 _atom_site_symmetry_multiplicity
 _atom_site_fract_x
 _atom_site_fract_y
 _atom_site_fract_z
 _atom_site_occupancy
  Na  Na0  1  0.00000000  0.69804500  0.76895500  1
  Na  Na1  1  0.00000000  0.60206600  0.12540200  1
  Na  Na2  1  0.00000000  0.39793400  0.62540200  1
  Na  Na3  1  0.00000000  0.30195500  0.26895500  1
  Na  Na4  1  0.33333300  0.66666700  0.41017000  1
  Na  Na5  1  0.33333300  0.66666700  0.91017000  1
  Na  Na6  1  0.30195500  0.30195500  0.76895500  1
  Na  Na7  1  0.39793400  0.39793400  0.12540200  1
  Na  Na8  1  0.60206600  0.60206600  0.62540200  1
  Na  Na9  1  0.30195500  0.00000000  0.26895500  1
  Na  Na10  1  0.69804500  0.69804500  0.26895500  1
  Na  Na11  1  0.39793400  0.00000000  0.62540200  1
  Na  Na12  1  0.66666700  0.33333300  0.91017000  1
  Na  Na13  1  0.66666700  0.33333300  0.41017000  1
  Na  Na14  1  0.60206600  0.00000000  0.12540200  1
  Na  Na15  1  0.69804500  0.00000000  0.76895500  1
  Sn  Sn16  1  0.00000000  0.00000000  0.99630500  1
  Sn  Sn17  1  0.00000000  0.00000000  0.49630500  1
  O  O18  1  0.00000000  0.70656300  0.95089600  1
  O  O19  1  0.00000000  0.29343700  0.45089600  1
  O  O20  1  0.33333300  0.66666700  0.21958800  1
  O  O21  1  0.00000000  0.00000000  0.15408500  1
  O  O22  1  0.00000000  0.00000000  0.65408500  1
  O  O23  1  0.33333300  0.66666700  0.71958800  1
  O  O24  1  0.29343700  0.29343700  0.95089600  1
  O  O25  1  0.29343700  0.00000000  0.45089600  1
  O  O26  1  0.70656300  0.70656300  0.45089600  1
  O  O27  1  0.66666700  0.33333300  0.71958800  1
  O  O28  1  0.66666700  0.33333300  0.21958800  1
  O  O29  1  0.70656300  0.00000000  0.95089600  1
