# generated using pymatgen
data_Na4Cu6O5
_symmetry_space_group_name_H-M   'P 1'
_cell_length_a   7.81103994
_cell_length_b   7.81103994
_cell_length_c   8.05252300
_cell_angle_alpha   90.00000000
_cell_angle_beta   90.00000000
_cell_angle_gamma   119.99999949
_symmetry_Int_Tables_number   1
_chemical_formula_structural   Na4Cu6O5
_chemical_formula_sum   'Na8 Cu12 O10'
_cell_volume   425.48115038
_cell_formula_units_Z   2
loop_
 _symmetry_equiv_pos_site_id
 _symmetry_equiv_pos_as_xyz
  1  'x, y, z'
loop_
 _atom_site_type_symbol
 _atom_site_label
 _atom_site_symmetry_multiplicity
 _atom_site_fract_x
 _atom_site_fract_y
 _atom_site_fract_z
 _atom_site_occupancy
  Na  Na0  1  0.12082300  0.40841400  0.25000000  1
  Na  Na1  1  0.28759100  0.87917700  0.25000000  1
  Na  Na2  1  0.00000000  0.00000000  0.50000000  1
  Na  Na3  1  0.00000000  0.00000000  0.00000000  1
  Na  Na4  1  0.59158600  0.71240900  0.25000000  1
  Na  Na5  1  0.71240900  0.59158600  0.75000000  1
  Na  Na6  1  0.40841400  0.12082300  0.75000000  1
  Na  Na7  1  0.87917700  0.28759100  0.75000000  1
  Cu  Cu8  1  0.16791200  0.71239500  0.90936600  1
  Cu  Cu9  1  0.16791200  0.71239500  0.59063400  1
  Cu  Cu10  1  0.28760500  0.45551700  0.90936600  1
  Cu  Cu11  1  0.28760500  0.45551700  0.59063400  1
  Cu  Cu12  1  0.54448300  0.83208800  0.59063400  1
  Cu  Cu13  1  0.54448300  0.83208800  0.90936600  1
  Cu  Cu14  1  0.45551700  0.28760500  0.09063400  1
  Cu  Cu15  1  0.45551700  0.28760500  0.40936600  1
  Cu  Cu16  1  0.83208800  0.54448300  0.09063400  1
  Cu  Cu17  1  0.83208800  0.54448300  0.40936600  1
  Cu  Cu18  1  0.71239500  0.16791200  0.09063400  1
  Cu  Cu19  1  0.71239500  0.16791200  0.40936600  1
  O  O20  1  0.05150100  0.78993600  0.75000000  1
  O  O21  1  0.33333300  0.66666700  0.44580700  1
  O  O22  1  0.33333300  0.66666700  0.05419300  1
  O  O23  1  0.21006400  0.26156500  0.75000000  1
  O  O24  1  0.26156500  0.21006400  0.25000000  1
  O  O25  1  0.73843500  0.94849900  0.75000000  1
  O  O26  1  0.66666700  0.33333300  0.55419300  1
  O  O27  1  0.66666700  0.33333300  0.94580700  1
  O  O28  1  0.94849900  0.73843500  0.25000000  1
  O  O29  1  0.78993600  0.05150100  0.25000000  1
