# generated using pymatgen
data_Na2Sn4O9
_symmetry_space_group_name_H-M   'P 1'
_cell_length_a   5.50371971
_cell_length_b   5.50371971
_cell_length_c   14.74611700
_cell_angle_alpha   90.00000000
_cell_angle_beta   90.00000000
_cell_angle_gamma   119.99999651
_symmetry_Int_Tables_number   1
_chemical_formula_structural   Na2Sn4O9
_chemical_formula_sum   'Na4 Sn8 O18'
_cell_volume   386.83070472
_cell_formula_units_Z   2
loop_
 _symmetry_equiv_pos_site_id
 _symmetry_equiv_pos_as_xyz
  1  'x, y, z'
loop_
 _atom_site_type_symbol
 _atom_site_label
 _atom_site_symmetry_multiplicity
 _atom_site_fract_x
 _atom_site_fract_y
 _atom_site_fract_z
 _atom_site_occupancy
  Na  Na0  1  0.00000000  0.00000000  0.14859100  1
  Na  Na1  1  0.00000000  0.00000000  0.35140900  1
  Na  Na2  1  0.00000000  0.00000000  0.64859100  1
  Na  Na3  1  0.00000000  0.00000000  0.85140900  1
  Sn  Sn4  1  0.33333300  0.66666700  0.31239900  1
  Sn  Sn5  1  0.33333300  0.66666700  0.02434200  1
  Sn  Sn6  1  0.33333300  0.66666700  0.81239900  1
  Sn  Sn7  1  0.33333300  0.66666700  0.52434200  1
  Sn  Sn8  1  0.66666700  0.33333300  0.18760100  1
  Sn  Sn9  1  0.66666700  0.33333300  0.68760100  1
  Sn  Sn10  1  0.66666700  0.33333300  0.47565800  1
  Sn  Sn11  1  0.66666700  0.33333300  0.97565800  1
  O  O12  1  0.00000000  0.66022100  0.75000000  1
  O  O13  1  0.04037200  0.64262000  0.42072300  1
  O  O14  1  0.35738000  0.95962800  0.92072300  1
  O  O15  1  0.00000000  0.33977900  0.25000000  1
  O  O16  1  0.04037200  0.39775100  0.92072300  1
  O  O17  1  0.35738000  0.39775100  0.42072300  1
  O  O18  1  0.33977900  0.33977900  0.75000000  1
  O  O19  1  0.39775100  0.35738000  0.07927700  1
  O  O20  1  0.60224900  0.95962800  0.42072300  1
  O  O21  1  0.33977900  0.00000000  0.25000000  1
  O  O22  1  0.39775100  0.04037200  0.57927700  1
  O  O23  1  0.60224900  0.64262000  0.92072300  1
  O  O24  1  0.66022100  0.66022100  0.25000000  1
  O  O25  1  0.64262000  0.60224900  0.57927700  1
  O  O26  1  0.95962800  0.60224900  0.07927700  1
  O  O27  1  0.64262000  0.04037200  0.07927700  1
  O  O28  1  0.66022100  0.00000000  0.75000000  1
  O  O29  1  0.95962800  0.35738000  0.57927700  1
