# generated using pymatgen
data_Ti3Co3(SbO8)2
_symmetry_space_group_name_H-M   'P 1'
_cell_length_a   5.79539100
_cell_length_b   5.79752546
_cell_length_c   9.32416836
_cell_angle_alpha   88.92158009
_cell_angle_beta   88.98210445
_cell_angle_gamma   60.61177421
_symmetry_Int_Tables_number   1
_chemical_formula_structural   Ti3Co3(SbO8)2
_chemical_formula_sum   'Ti3 Co3 Sb2 O16'
_cell_volume   272.90581771
_cell_formula_units_Z   1
loop_
 _symmetry_equiv_pos_site_id
 _symmetry_equiv_pos_as_xyz
  1  'x, y, z'
loop_
 _atom_site_type_symbol
 _atom_site_label
 _atom_site_symmetry_multiplicity
 _atom_site_fract_x
 _atom_site_fract_y
 _atom_site_fract_z
 _atom_site_occupancy
  Ti  Ti0  1  0.33164300  0.82634000  0.21370400  1
  Ti  Ti1  1  0.82754600  0.33148600  0.21373200  1
  Ti  Ti2  1  0.16258000  0.15182100  0.71122100  1
  Co  Co3  1  0.82650200  0.82505800  0.21106300  1
  Co  Co4  1  0.16538200  0.65450800  0.71453800  1
  Co  Co5  1  0.65587200  0.17175300  0.71181000  1
  Sb  Sb6  1  0.67903700  0.67200300  0.49088800  1
  Sb  Sb7  1  0.33970400  0.33499500  0.98508300  1
  O  O8  1  0.33355500  0.83633900  0.60022700  1
  O  O9  1  0.52184400  0.51992900  0.34400500  1
  O  O10  1  0.66288500  0.66249400  0.10422300  1
  O  O11  1  0.99483300  0.99377900  0.30883000  1
  O  O12  1  0.99422100  0.98729100  0.80894800  1
  O  O13  1  0.83830200  0.33415200  0.60146600  1
  O  O14  1  0.52580300  0.96161400  0.33763800  1
  O  O15  1  0.96482400  0.52356100  0.33713900  1
  O  O16  1  0.17164100  0.17188400  0.10474400  1
  O  O17  1  0.84105000  0.84328400  0.60150700  1
  O  O18  1  0.03454300  0.48992500  0.83680500  1
  O  O19  1  0.47857600  0.04093500  0.83719200  1
  O  O20  1  0.33162500  0.34950200  0.61238600  1
  O  O21  1  0.16961300  0.66497800  0.10062600  1
  O  O22  1  0.48115200  0.48406400  0.82753900  1
  O  O23  1  0.66706500  0.16850200  0.10041100  1
