# generated using pymatgen
data_Mn2(CO3)3
_symmetry_space_group_name_H-M   'P 1'
_cell_length_a   7.52188900
_cell_length_b   7.58708103
_cell_length_c   7.66219892
_cell_angle_alpha   119.14407044
_cell_angle_beta   93.41082269
_cell_angle_gamma   91.71637799
_symmetry_Int_Tables_number   1
_chemical_formula_structural   Mn2(CO3)3
_chemical_formula_sum   'Mn4 C6 O18'
_cell_volume   380.36713924
_cell_formula_units_Z   2
loop_
 _symmetry_equiv_pos_site_id
 _symmetry_equiv_pos_as_xyz
  1  'x, y, z'
loop_
 _atom_site_type_symbol
 _atom_site_label
 _atom_site_symmetry_multiplicity
 _atom_site_fract_x
 _atom_site_fract_y
 _atom_site_fract_z
 _atom_site_occupancy
  Mn  Mn0  1  0.95645600  0.66233400  0.32652100  1
  Mn  Mn1  1  0.54370900  0.66803700  0.33634500  1
  Mn  Mn2  1  0.45629100  0.33196300  0.66365500  1
  Mn  Mn3  1  0.04354400  0.33766600  0.67347900  1
  C  C4  1  0.25747500  0.93650600  0.34525500  1
  C  C5  1  0.24638500  0.40437500  0.06088600  1
  C  C6  1  0.75357400  0.34938600  0.40936700  1
  C  C7  1  0.24642600  0.65061400  0.59063300  1
  C  C8  1  0.75361500  0.59562500  0.93911400  1
  C  C9  1  0.74252500  0.06349400  0.65474500  1
  O  O10  1  0.10032200  0.84854100  0.27352200  1
  O  O11  1  0.40039500  0.85297000  0.27390100  1
  O  O12  1  0.75713500  0.64047700  0.12850600  1
  O  O13  1  0.40542300  0.42245200  0.14765900  1
  O  O14  1  0.10486200  0.41936900  0.14602500  1
  O  O15  1  0.75419500  0.49523400  0.36178300  1
  O  O16  1  0.73783200  0.87564400  0.50891200  1
  O  O17  1  0.09423900  0.71836800  0.57395600  1
  O  O18  1  0.39465000  0.72148100  0.57315000  1
  O  O19  1  0.60535000  0.27851900  0.42685000  1
  O  O20  1  0.90576100  0.28163200  0.42604400  1
  O  O21  1  0.26216800  0.12435600  0.49108800  1
  O  O22  1  0.24580500  0.50476600  0.63821700  1
  O  O23  1  0.89513800  0.58063100  0.85397500  1
  O  O24  1  0.59457700  0.57754800  0.85234100  1
  O  O25  1  0.24286500  0.35952300  0.87149400  1
  O  O26  1  0.59960500  0.14703000  0.72609900  1
  O  O27  1  0.89967800  0.15145900  0.72647800  1
