# generated using pymatgen
data_K3GdF6
_symmetry_space_group_name_H-M   'P 1'
_cell_length_a   6.68886200
_cell_length_b   6.44399300
_cell_length_c   11.15242075
_cell_angle_alpha   55.74844212
_cell_angle_beta   90.00000000
_cell_angle_gamma   90.00000000
_symmetry_Int_Tables_number   1
_chemical_formula_structural   K3GdF6
_chemical_formula_sum   'K6 Gd2 F12'
_cell_volume   397.33645829
_cell_formula_units_Z   2
loop_
 _symmetry_equiv_pos_site_id
 _symmetry_equiv_pos_as_xyz
  1  'x, y, z'
loop_
 _atom_site_type_symbol
 _atom_site_label
 _atom_site_symmetry_multiplicity
 _atom_site_fract_x
 _atom_site_fract_y
 _atom_site_fract_z
 _atom_site_occupancy
  K  K0  1  0.94821100  0.72436500  0.75817000  1
  K  K1  1  0.44821100  0.27563500  0.74183000  1
  K  K2  1  0.05178900  0.27563500  0.24183000  1
  K  K3  1  0.55178900  0.72436500  0.25817000  1
  K  K4  1  0.00000000  0.50000000  0.50000000  1
  K  K5  1  0.50000000  0.50000000  0.00000000  1
  Gd  Gd6  1  0.50000000  0.00000000  0.50000000  1
  Gd  Gd7  1  0.00000000  0.00000000  0.00000000  1
  F  F8  1  0.93383200  0.89668100  0.22448400  1
  F  F9  1  0.43383200  0.10331900  0.27551600  1
  F  F10  1  0.06616800  0.10331900  0.77551600  1
  F  F11  1  0.56616800  0.89668100  0.72448400  1
  F  F12  1  0.72924900  0.24951700  0.92200100  1
  F  F13  1  0.22924900  0.75048300  0.57799900  1
  F  F14  1  0.27075100  0.75048300  0.07799900  1
  F  F15  1  0.77075100  0.24951700  0.42200100  1
  F  F16  1  0.32138700  0.33302600  0.44897800  1
  F  F17  1  0.82138700  0.66697400  0.05102200  1
  F  F18  1  0.67861300  0.66697400  0.55102200  1
  F  F19  1  0.17861300  0.33302600  0.94897800  1
