# generated using pymatgen
data_VO2F
_symmetry_space_group_name_H-M   'P 1'
_cell_length_a   5.16037100
_cell_length_b   5.31254642
_cell_length_c   13.01767869
_cell_angle_alpha   90.33680367
_cell_angle_beta   91.27575802
_cell_angle_gamma   118.11439742
_symmetry_Int_Tables_number   1
_chemical_formula_structural   VO2F
_chemical_formula_sum   'V6 O12 F6'
_cell_volume   314.63530677
_cell_formula_units_Z   6
loop_
 _symmetry_equiv_pos_site_id
 _symmetry_equiv_pos_as_xyz
  1  'x, y, z'
loop_
 _atom_site_type_symbol
 _atom_site_label
 _atom_site_symmetry_multiplicity
 _atom_site_fract_x
 _atom_site_fract_y
 _atom_site_fract_z
 _atom_site_occupancy
  V  V0  1  0.31486100  0.64688400  0.68018800  1
  V  V1  1  0.31096900  0.62454500  0.17880200  1
  V  V2  1  0.70509600  0.36023300  0.85208400  1
  V  V3  1  0.63914200  0.29744200  0.35138000  1
  V  V4  1  0.94159600  0.97158300  0.51507200  1
  V  V5  1  0.00628500  0.96133900  0.01579800  1
  O  O6  1  0.75529700  0.87244800  0.10343300  1
  O  O7  1  0.49146200  0.51280300  0.26322800  1
  O  O8  1  0.59621500  0.82139500  0.55676900  1
  O  O9  1  0.86214900  0.15864000  0.39131200  1
  O  O10  1  0.02333900  0.52256400  0.76225900  1
  O  O11  1  0.22692900  0.82521700  0.05857100  1
  O  O12  1  0.83869200  0.20808600  0.93246300  1
  O  O13  1  0.97113500  0.46709000  0.21725100  1
  O  O14  1  0.12040400  0.87438600  0.60126100  1
  O  O15  1  0.78542300  0.67586700  0.91517300  1
  O  O16  1  0.38403300  0.19302400  0.43759200  1
  O  O17  1  0.49962000  0.48458000  0.72235600  1
  F  F18  1  0.27361300  0.34899700  0.07303100  1
  F  F19  1  0.07623200  0.35370700  0.57468200  1
  F  F20  1  0.55224100  0.99923500  0.74582800  1
  F  F21  1  0.89233900  0.67431300  0.41494600  1
  F  F22  1  0.42559200  0.98814000  0.25108700  1
  F  F23  1  0.30733500  0.15748000  0.88543100  1
