# generated using pymatgen
data_FeOF
_symmetry_space_group_name_H-M   'P 1'
_cell_length_a   4.67637500
_cell_length_b   5.62835951
_cell_length_c   7.88812583
_cell_angle_alpha   85.44725934
_cell_angle_beta   88.72288264
_cell_angle_gamma   88.25721812
_symmetry_Int_Tables_number   1
_chemical_formula_structural   FeOF
_chemical_formula_sum   'Fe6 O6 F6'
_cell_volume   206.82600467
_cell_formula_units_Z   6
loop_
 _symmetry_equiv_pos_site_id
 _symmetry_equiv_pos_as_xyz
  1  'x, y, z'
loop_
 _atom_site_type_symbol
 _atom_site_label
 _atom_site_symmetry_multiplicity
 _atom_site_fract_x
 _atom_site_fract_y
 _atom_site_fract_z
 _atom_site_occupancy
  Fe  Fe0  1  0.50000000  0.50000000  0.00000000  1
  Fe  Fe1  1  0.47604200  0.17636900  0.35539800  1
  Fe  Fe2  1  0.52395800  0.82363100  0.64460200  1
  Fe  Fe3  1  0.02270200  0.34194600  0.68992400  1
  Fe  Fe4  1  0.97729800  0.65805400  0.31007600  1
  Fe  Fe5  1  0.00000000  0.00000000  0.00000000  1
  O  O6  1  0.80574800  0.71221300  0.08865000  1
  O  O7  1  0.69076100  0.53514600  0.76539500  1
  O  O8  1  0.70202500  0.87410700  0.42448000  1
  O  O9  1  0.29797500  0.12589300  0.57552000  1
  O  O10  1  0.30923900  0.46485400  0.23460500  1
  O  O11  1  0.19425200  0.28778700  0.91135000  1
  F  F12  1  0.80791900  0.36860800  0.43918400  1
  F  F13  1  0.79679900  0.03520600  0.77380100  1
  F  F14  1  0.70196200  0.20089900  0.11177100  1
  F  F15  1  0.29803800  0.79910100  0.88822900  1
  F  F16  1  0.20320100  0.96479400  0.22619900  1
  F  F17  1  0.19208100  0.63139200  0.56081600  1
