# generated using pymatgen
data_V3O5F
_symmetry_space_group_name_H-M   'P 1'
_cell_length_a   4.69112000
_cell_length_b   5.55330635
_cell_length_c   7.50442225
_cell_angle_alpha   96.10259640
_cell_angle_beta   90.26773526
_cell_angle_gamma   90.29246910
_symmetry_Int_Tables_number   1
_chemical_formula_structural   V3O5F
_chemical_formula_sum   'V6 O10 F2'
_cell_volume   194.38632687
_cell_formula_units_Z   2
loop_
 _symmetry_equiv_pos_site_id
 _symmetry_equiv_pos_as_xyz
  1  'x, y, z'
loop_
 _atom_site_type_symbol
 _atom_site_label
 _atom_site_symmetry_multiplicity
 _atom_site_fract_x
 _atom_site_fract_y
 _atom_site_fract_z
 _atom_site_occupancy
  V  V0  1  0.46830500  0.84815200  0.34464800  1
  V  V1  1  0.49741400  0.48301700  0.99518300  1
  V  V2  1  0.50230600  0.16687900  0.66277300  1
  V  V3  1  0.00811800  0.31894900  0.32696700  1
  V  V4  1  0.00743700  0.67353800  0.68577300  1
  V  V5  1  0.01706000  0.00823300  0.99132700  1
  O  O6  1  0.17932400  0.37263200  0.55682000  1
  O  O7  1  0.20526200  0.69169700  0.89885900  1
  O  O8  1  0.20093900  0.03544000  0.23495500  1
  O  O9  1  0.30350100  0.20126800  0.90124500  1
  O  O10  1  0.31916300  0.54239100  0.22987100  1
  O  O11  1  0.28887000  0.86068500  0.56503300  1
  O  O12  1  0.69715500  0.11771400  0.41998200  1
  O  O13  1  0.69997300  0.47631300  0.78074200  1
  O  O14  1  0.79814900  0.95904300  0.75847300  1
  O  O15  1  0.80889400  0.30824600  0.10958900  1
  F  F16  1  0.70323400  0.80209500  0.10271500  1
  F  F17  1  0.79489700  0.63370800  0.43504900  1
