# generated using pymatgen
data_VOF
_symmetry_space_group_name_H-M   'P 1'
_cell_length_a   3.10174700
_cell_length_b   4.75047000
_cell_length_c   18.96570098
_cell_angle_alpha   87.43128086
_cell_angle_beta   90.00000000
_cell_angle_gamma   90.00000000
_symmetry_Int_Tables_number   1
_chemical_formula_structural   VOF
_chemical_formula_sum   'V8 O8 F8'
_cell_volume   279.17417771
_cell_formula_units_Z   8
loop_
 _symmetry_equiv_pos_site_id
 _symmetry_equiv_pos_as_xyz
  1  'x, y, z'
loop_
 _atom_site_type_symbol
 _atom_site_label
 _atom_site_symmetry_multiplicity
 _atom_site_fract_x
 _atom_site_fract_y
 _atom_site_fract_z
 _atom_site_occupancy
  V  V0  1  0.00000000  0.96824800  0.24995700  1
  V  V1  1  0.00000000  0.00000000  0.00000000  1
  V  V2  1  0.00000000  0.00000000  0.50000000  1
  V  V3  1  0.00000000  0.03175200  0.75004300  1
  V  V4  1  0.50000000  0.42725500  0.12486600  1
  V  V5  1  0.50000000  0.57274500  0.87513400  1
  V  V6  1  0.50000000  0.48579200  0.37510200  1
  V  V7  1  0.50000000  0.51420800  0.62489800  1
  O  O8  1  0.50000000  0.81417000  0.95193000  1
  O  O9  1  0.00000000  0.73824500  0.82419200  1
  O  O10  1  0.00000000  0.70739100  0.57469300  1
  O  O11  1  0.00000000  0.67976600  0.32514000  1
  O  O12  1  0.00000000  0.26175500  0.17580800  1
  O  O13  1  0.00000000  0.29260900  0.42530700  1
  O  O14  1  0.00000000  0.32023400  0.67486000  1
  O  O15  1  0.50000000  0.18583000  0.04807000  1
  F  F16  1  0.50000000  0.76959400  0.19963700  1
  F  F17  1  0.50000000  0.80057400  0.45103100  1
  F  F18  1  0.50000000  0.82796800  0.70137700  1
  F  F19  1  0.00000000  0.67892800  0.07926000  1
  F  F20  1  0.00000000  0.32107200  0.92074000  1
  F  F21  1  0.50000000  0.17203200  0.29862300  1
  F  F22  1  0.50000000  0.19942600  0.54896900  1
  F  F23  1  0.50000000  0.23040600  0.80036300  1
