# generated using pymatgen
data_V2(OF)3
_symmetry_space_group_name_H-M   'P 1'
_cell_length_a   5.21627100
_cell_length_b   5.23703055
_cell_length_c   13.24669725
_cell_angle_alpha   89.79642105
_cell_angle_beta   89.69926135
_cell_angle_gamma   60.13160283
_symmetry_Int_Tables_number   1
_chemical_formula_structural   V2(OF)3
_chemical_formula_sum   'V6 O9 F9'
_cell_volume   313.79907394
_cell_formula_units_Z   3
loop_
 _symmetry_equiv_pos_site_id
 _symmetry_equiv_pos_as_xyz
  1  'x, y, z'
loop_
 _atom_site_type_symbol
 _atom_site_label
 _atom_site_symmetry_multiplicity
 _atom_site_fract_x
 _atom_site_fract_y
 _atom_site_fract_z
 _atom_site_occupancy
  V  V0  1  0.95533800  0.02392700  0.50858200  1
  V  V1  1  0.98540100  0.99488100  0.00623800  1
  V  V2  1  0.36246400  0.28654900  0.17486500  1
  V  V3  1  0.68357700  0.60881300  0.33396800  1
  V  V4  1  0.27132400  0.37852500  0.66712500  1
  V  V5  1  0.65602200  0.70584100  0.84710100  1
  O  O6  1  0.58239900  0.42522400  0.25335000  1
  O  O7  1  0.67226000  0.23927500  0.58347300  1
  O  O8  1  0.90599000  0.75641500  0.91209700  1
  O  O9  1  0.68714900  0.08669900  0.08194300  1
  O  O10  1  0.00030100  0.42531800  0.74694200  1
  O  O11  1  0.90736500  0.33993300  0.41454700  1
  O  O12  1  0.43018600  0.99857100  0.24695900  1
  O  O13  1  0.09331100  0.65855000  0.58443500  1
  O  O14  1  0.34523500  0.90438800  0.91536300  1
  F  F15  1  0.99729500  0.58750500  0.24834800  1
  F  F16  1  0.74788000  0.91431700  0.41155300  1
  F  F17  1  0.42119100  0.57585600  0.74807300  1
  F  F18  1  0.26732500  0.66162500  0.08318300  1
  F  F19  1  0.58149800  0.99619400  0.74685600  1
  F  F20  1  0.75658100  0.33378400  0.91064500  1
  F  F21  1  0.26128900  0.08051300  0.58257400  1
  F  F22  1  0.09228000  0.25995100  0.07821900  1
  F  F23  1  0.33634000  0.75734100  0.41356400  1
