# generated using pymatgen
data_V3O7
_symmetry_space_group_name_H-M   'P 1'
_cell_length_a   10.92788610
_cell_length_b   10.92788610
_cell_length_c   9.76275500
_cell_angle_alpha   90.00000000
_cell_angle_beta   90.00000000
_cell_angle_gamma   120.00000060
_symmetry_Int_Tables_number   1
_chemical_formula_structural   V3O7
_chemical_formula_sum   'V18 O42'
_cell_volume   1009.66043744
_cell_formula_units_Z   6
loop_
 _symmetry_equiv_pos_site_id
 _symmetry_equiv_pos_as_xyz
  1  'x, y, z'
loop_
 _atom_site_type_symbol
 _atom_site_label
 _atom_site_symmetry_multiplicity
 _atom_site_fract_x
 _atom_site_fract_y
 _atom_site_fract_z
 _atom_site_occupancy
  V  V0  1  0.30740900  0.11651600  0.29793900  1
  V  V1  1  0.31452500  0.15648700  0.64833600  1
  V  V2  1  0.31976300  0.20043400  0.99903400  1
  V  V3  1  0.79956600  0.11933000  0.99903400  1
  V  V4  1  0.84351300  0.15803800  0.64833600  1
  V  V5  1  0.88348400  0.19089300  0.29793900  1
  V  V6  1  0.11651600  0.30740900  0.79793900  1
  V  V7  1  0.15648700  0.31452500  0.14833600  1
  V  V8  1  0.80910700  0.69259100  0.29793900  1
  V  V9  1  0.20043400  0.31976300  0.49903400  1
  V  V10  1  0.84196200  0.68547500  0.64833600  1
  V  V11  1  0.88067000  0.68023700  0.99903400  1
  V  V12  1  0.11933000  0.79956600  0.49903400  1
  V  V13  1  0.15803800  0.84351300  0.14833600  1
  V  V14  1  0.19089300  0.88348400  0.79793900  1
  V  V15  1  0.69259100  0.80910700  0.79793900  1
  V  V16  1  0.68547500  0.84196200  0.14833600  1
  V  V17  1  0.68023700  0.88067000  0.49903400  1
  O  O18  1  0.25331700  0.07595700  0.83056800  1
  O  O19  1  0.28794500  0.03450400  0.11204700  1
  O  O20  1  0.25678900  0.17393800  0.46404700  1
  O  O21  1  0.28780600  0.25253500  0.19228800  1
  O  O22  1  0.46655200  0.15694400  0.33170800  1
  O  O23  1  0.48264600  0.24177800  0.64800400  1
  O  O24  1  0.74746500  0.03527100  0.19228800  1
  O  O25  1  0.47751900  0.31947200  0.95795500  1
  O  O26  1  0.68052800  0.15804700  0.95795500  1
  O  O27  1  0.82606200  0.08285000  0.46404700  1
  O  O28  1  0.75822200  0.24086800  0.64800400  1
  O  O29  1  0.92404300  0.17736000  0.83056800  1
  O  O30  1  0.84305600  0.30960700  0.33170800  1
  O  O31  1  0.69039300  0.53344800  0.33170800  1
  O  O32  1  0.96549600  0.25344100  0.11204700  1
  O  O33  1  0.75913200  0.51735400  0.64800400  1
  O  O34  1  0.07595700  0.25331700  0.33056800  1
  O  O35  1  0.03450400  0.28794500  0.61204700  1
  O  O36  1  0.84195300  0.52248100  0.95795500  1
  O  O37  1  0.17393800  0.25678900  0.96404700  1
  O  O38  1  0.74655900  0.71205500  0.11204700  1
  O  O39  1  0.25253500  0.28780600  0.69228800  1
  O  O40  1  0.82264000  0.74668300  0.83056800  1
  O  O41  1  0.15694400  0.46655200  0.83170800  1
  O  O42  1  0.96472900  0.71219400  0.19228800  1
  O  O43  1  0.91715000  0.74321100  0.46404700  1
  O  O44  1  0.24177800  0.48264600  0.14800400  1
  O  O45  1  0.03527100  0.74746500  0.69228800  1
  O  O46  1  0.31947200  0.47751900  0.45795500  1
  O  O47  1  0.15804700  0.68052800  0.45795500  1
  O  O48  1  0.08285000  0.82606200  0.96404700  1
  O  O49  1  0.24086800  0.75822200  0.14800400  1
  O  O50  1  0.17736000  0.92404300  0.33056800  1
  O  O51  1  0.30960700  0.84305600  0.83170800  1
  O  O52  1  0.53344800  0.69039300  0.83170800  1
  O  O53  1  0.25344100  0.96549600  0.61204700  1
  O  O54  1  0.51735400  0.75913200  0.14800400  1
  O  O55  1  0.52248100  0.84195300  0.45795500  1
  O  O56  1  0.71205500  0.74655900  0.61204700  1
  O  O57  1  0.74668300  0.82264000  0.33056800  1
  O  O58  1  0.71219400  0.96472900  0.69228800  1
  O  O59  1  0.74321100  0.91715000  0.96404700  1
