# generated using pymatgen
data_LiCo5O5F
_symmetry_space_group_name_H-M   'P 1'
_cell_length_a   3.29357421
_cell_length_b   3.29357421
_cell_length_c   15.66298900
_cell_angle_alpha   90.00000000
_cell_angle_beta   90.00000000
_cell_angle_gamma   120.00000429
_symmetry_Int_Tables_number   1
_chemical_formula_structural   LiCo5O5F
_chemical_formula_sum   'Li1 Co5 O5 F1'
_cell_volume   147.14318875
_cell_formula_units_Z   1
loop_
 _symmetry_equiv_pos_site_id
 _symmetry_equiv_pos_as_xyz
  1  'x, y, z'
loop_
 _atom_site_type_symbol
 _atom_site_label
 _atom_site_symmetry_multiplicity
 _atom_site_fract_x
 _atom_site_fract_y
 _atom_site_fract_z
 _atom_site_occupancy
  Li  Li0  1  0.33333300  0.66666700  0.00672500  1
  Co  Co1  1  0.33333300  0.66666700  0.33135500  1
  Co  Co2  1  0.33333300  0.66666700  0.66544800  1
  Co  Co3  1  0.66666700  0.33333300  0.49872900  1
  Co  Co4  1  0.66666700  0.33333300  0.16510100  1
  Co  Co5  1  0.66666700  0.33333300  0.83041300  1
  O  O6  1  0.33333300  0.66666700  0.46213900  1
  O  O7  1  0.33333300  0.66666700  0.12649000  1
  O  O8  1  0.33333300  0.66666700  0.79577100  1
  O  O9  1  0.66666700  0.33333300  0.29540500  1
  O  O10  1  0.66666700  0.33333300  0.62937800  1
  F  F11  1  0.66666700  0.33333300  0.95905000  1
