# generated using pymatgen
data_Na5Mn7O16
_symmetry_space_group_name_H-M   'P 1'
_cell_length_a   5.97796100
_cell_length_b   6.21015700
_cell_length_c   8.81149494
_cell_angle_alpha   88.03113091
_cell_angle_beta   90.00000000
_cell_angle_gamma   90.00000000
_symmetry_Int_Tables_number   1
_chemical_formula_structural   Na5Mn7O16
_chemical_formula_sum   'Na5 Mn7 O16'
_cell_volume   326.92549369
_cell_formula_units_Z   1
loop_
 _symmetry_equiv_pos_site_id
 _symmetry_equiv_pos_as_xyz
  1  'x, y, z'
loop_
 _atom_site_type_symbol
 _atom_site_label
 _atom_site_symmetry_multiplicity
 _atom_site_fract_x
 _atom_site_fract_y
 _atom_site_fract_z
 _atom_site_occupancy
  Na  Na0  1  0.00000000  0.23700500  0.62641100  1
  Na  Na1  1  0.50000000  0.23513100  0.88094900  1
  Na  Na2  1  0.00000000  0.00000000  0.00000000  1
  Na  Na3  1  0.50000000  0.76486900  0.11905100  1
  Na  Na4  1  0.00000000  0.76299500  0.37358900  1
  Mn  Mn5  1  0.24911000  0.72985600  0.75037800  1
  Mn  Mn6  1  0.75089000  0.72985600  0.75037800  1
  Mn  Mn7  1  0.00000000  0.50000000  0.00000000  1
  Mn  Mn8  1  0.75089000  0.27014400  0.24962200  1
  Mn  Mn9  1  0.24911000  0.27014400  0.24962200  1
  Mn  Mn10  1  0.50000000  0.50000000  0.50000000  1
  Mn  Mn11  1  0.50000000  0.00000000  0.50000000  1
  O  O12  1  0.50000000  0.51742500  0.72212000  1
  O  O13  1  0.50000000  0.93138900  0.74879600  1
  O  O14  1  0.00000000  0.51588300  0.77134300  1
  O  O15  1  0.00000000  0.92042100  0.73739600  1
  O  O16  1  0.77159100  0.71143500  0.96160000  1
  O  O17  1  0.22840900  0.71143500  0.96160000  1
  O  O18  1  0.22840900  0.28856500  0.03840000  1
  O  O19  1  0.77159100  0.28856500  0.03840000  1
  O  O20  1  0.00000000  0.07957900  0.26260400  1
  O  O21  1  0.00000000  0.48411700  0.22865700  1
  O  O22  1  0.50000000  0.06861100  0.25120400  1
  O  O23  1  0.50000000  0.48257500  0.27788000  1
  O  O24  1  0.70909600  0.25626400  0.47910900  1
  O  O25  1  0.29090400  0.25626400  0.47910900  1
  O  O26  1  0.29090400  0.74373600  0.52089100  1
  O  O27  1  0.70909600  0.74373600  0.52089100  1
