# generated using pymatgen
data_V2OF5
_symmetry_space_group_name_H-M   'P 1'
_cell_length_a   8.55196617
_cell_length_b   8.55196617
_cell_length_c   4.62184800
_cell_angle_alpha   90.00000000
_cell_angle_beta   90.00000000
_cell_angle_gamma   120.00000128
_symmetry_Int_Tables_number   1
_chemical_formula_structural   V2OF5
_chemical_formula_sum   'V6 O3 F15'
_cell_volume   292.73741447
_cell_formula_units_Z   3
loop_
 _symmetry_equiv_pos_site_id
 _symmetry_equiv_pos_as_xyz
  1  'x, y, z'
loop_
 _atom_site_type_symbol
 _atom_site_label
 _atom_site_symmetry_multiplicity
 _atom_site_fract_x
 _atom_site_fract_y
 _atom_site_fract_z
 _atom_site_occupancy
  V  V0  1  0.66619300  0.66461300  0.99988000  1
  V  V1  1  0.34281500  0.35191700  0.47654700  1
  V  V2  1  0.00910200  0.65718500  0.47654700  1
  V  V3  1  0.33538700  0.00157900  0.99988000  1
  V  V4  1  0.99842100  0.33380700  0.99988000  1
  V  V5  1  0.64808300  0.99089800  0.47654700  1
  O  O6  1  0.45150200  0.53518900  0.25832300  1
  O  O7  1  0.08368700  0.54849800  0.25832300  1
  O  O8  1  0.46481100  0.91631300  0.25832300  1
  F  F9  1  0.21793500  0.42882400  0.74801300  1
  F  F10  1  0.86753600  0.11833900  0.74205100  1
  F  F11  1  0.11572700  0.23339800  0.25143800  1
  F  F12  1  0.25080400  0.13246400  0.74205100  1
  F  F13  1  0.57117600  0.78911000  0.74801300  1
  F  F14  1  0.76660200  0.88232900  0.25143800  1
  F  F15  1  0.11767100  0.88427300  0.25143800  1
  F  F16  1  0.88166100  0.74919600  0.74205100  1
  F  F17  1  0.21089000  0.78206500  0.74801300  1
  F  F18  1  0.55117300  0.44985800  0.74983800  1
  F  F19  1  0.78502400  0.56887100  0.25579300  1
  F  F20  1  0.43112900  0.21615300  0.25579300  1
  F  F21  1  0.89868500  0.44882700  0.74983800  1
  F  F22  1  0.55014200  0.10131500  0.74983800  1
  F  F23  1  0.78384700  0.21497600  0.25579300  1
