# generated using pymatgen
data_Cr3(CuO6)2
_symmetry_space_group_name_H-M   'P 1'
_cell_length_a   9.01237800
_cell_length_b   8.62978100
_cell_length_c   14.84664660
_cell_angle_alpha   55.18678168
_cell_angle_beta   90.00000000
_cell_angle_gamma   90.00000000
_symmetry_Int_Tables_number   1
_chemical_formula_structural   Cr3(CuO6)2
_chemical_formula_sum   'Cr12 Cu8 O48'
_cell_volume   948.02539312
_cell_formula_units_Z   4
loop_
 _symmetry_equiv_pos_site_id
 _symmetry_equiv_pos_as_xyz
  1  'x, y, z'
loop_
 _atom_site_type_symbol
 _atom_site_label
 _atom_site_symmetry_multiplicity
 _atom_site_fract_x
 _atom_site_fract_y
 _atom_site_fract_z
 _atom_site_occupancy
  Cr  Cr0  1  0.75189400  0.54674900  0.49177200  1
  Cr  Cr1  1  0.62092000  0.25794900  0.85052900  1
  Cr  Cr2  1  0.88687900  0.97086700  0.14330200  1
  Cr  Cr3  1  0.12092000  0.74205100  0.64947100  1
  Cr  Cr4  1  0.38687900  0.02913300  0.35669800  1
  Cr  Cr5  1  0.25189400  0.45325100  0.00822800  1
  Cr  Cr6  1  0.74810600  0.54674900  0.99177200  1
  Cr  Cr7  1  0.61312100  0.97086700  0.64330200  1
  Cr  Cr8  1  0.87908000  0.25794900  0.35052900  1
  Cr  Cr9  1  0.11312100  0.02913300  0.85669800  1
  Cr  Cr10  1  0.37908000  0.74205100  0.14947100  1
  Cr  Cr11  1  0.24810600  0.45325100  0.50822800  1
  Cu  Cu12  1  0.97140700  0.36569200  0.88661600  1
  Cu  Cu13  1  0.47140700  0.63430800  0.61338400  1
  Cu  Cu14  1  0.03020000  0.87094700  0.38215500  1
  Cu  Cu15  1  0.53020000  0.12905300  0.11784500  1
  Cu  Cu16  1  0.46980000  0.87094700  0.88215500  1
  Cu  Cu17  1  0.96980000  0.12905300  0.61784500  1
  Cu  Cu18  1  0.52859300  0.36569200  0.38661600  1
  Cu  Cu19  1  0.02859300  0.63430800  0.11338400  1
  O  O20  1  0.11983900  0.61985700  0.44580200  1
  O  O21  1  0.11394900  0.16524100  0.90296400  1
  O  O22  1  0.33079000  0.45775000  0.60834500  1
  O  O23  1  0.42726600  0.88221500  0.18884300  1
  O  O24  1  0.63292400  0.50965200  0.58816800  1
  O  O25  1  0.80585000  0.28433000  0.83681400  1
  O  O26  1  0.57767900  0.15419700  0.98162300  1
  O  O27  1  0.00464800  0.87902100  0.24822500  1
  O  O28  1  0.71732200  0.98192800  0.18412200  1
  O  O29  1  0.82870400  0.75989600  0.43293400  1
  O  O30  1  0.53221200  0.46399500  0.77341600  1
  O  O31  1  0.03221200  0.53600500  0.72658400  1
  O  O32  1  0.94079400  0.19199000  0.04568900  1
  O  O33  1  0.44079400  0.80801000  0.45431100  1
  O  O34  1  0.32870400  0.24010400  0.06706600  1
  O  O35  1  0.21732200  0.01807200  0.31587800  1
  O  O36  1  0.07767900  0.84580300  0.51837700  1
  O  O37  1  0.50464800  0.12097900  0.25177500  1
  O  O38  1  0.30585000  0.71567000  0.66318600  1
  O  O39  1  0.13292400  0.49034800  0.91183200  1
  O  O40  1  0.83079000  0.54225000  0.89165500  1
  O  O41  1  0.61394900  0.83475900  0.59703600  1
  O  O42  1  0.92726600  0.11778500  0.31115700  1
  O  O43  1  0.61983900  0.38014300  0.05419800  1
  O  O44  1  0.38016100  0.61985700  0.94580200  1
  O  O45  1  0.07273400  0.88221500  0.68884300  1
  O  O46  1  0.38605100  0.16524100  0.40296400  1
  O  O47  1  0.16921000  0.45775000  0.10834500  1
  O  O48  1  0.86707600  0.50965200  0.08816800  1
  O  O49  1  0.69415000  0.28433000  0.33681400  1
  O  O50  1  0.49535200  0.87902100  0.74822500  1
  O  O51  1  0.92232100  0.15419700  0.48162300  1
  O  O52  1  0.78267800  0.98192800  0.68412200  1
  O  O53  1  0.67129600  0.75989600  0.93293400  1
  O  O54  1  0.55920600  0.19199000  0.54568900  1
  O  O55  1  0.05920600  0.80801000  0.95431100  1
  O  O56  1  0.96778800  0.46399500  0.27341600  1
  O  O57  1  0.46778800  0.53600500  0.22658400  1
  O  O58  1  0.17129600  0.24010400  0.56706600  1
  O  O59  1  0.28267800  0.01807200  0.81587800  1
  O  O60  1  0.99535200  0.12097900  0.75177500  1
  O  O61  1  0.42232100  0.84580300  0.01837700  1
  O  O62  1  0.19415000  0.71567000  0.16318600  1
  O  O63  1  0.36707600  0.49034800  0.41183200  1
  O  O64  1  0.57273400  0.11778500  0.81115700  1
  O  O65  1  0.66921000  0.54225000  0.39165500  1
  O  O66  1  0.88605100  0.83475900  0.09703600  1
  O  O67  1  0.88016100  0.38014300  0.55419800  1
