# generated using pymatgen
data_VF5
_symmetry_space_group_name_H-M   'P 1'
_cell_length_a   5.60722800
_cell_length_b   8.21617500
_cell_length_c   8.26567000
_cell_angle_alpha   90.00000000
_cell_angle_beta   90.00000000
_cell_angle_gamma   90.00000000
_symmetry_Int_Tables_number   1
_chemical_formula_structural   VF5
_chemical_formula_sum   'V4 F20'
_cell_volume   380.79914011
_cell_formula_units_Z   4
loop_
 _symmetry_equiv_pos_site_id
 _symmetry_equiv_pos_as_xyz
  1  'x, y, z'
loop_
 _atom_site_type_symbol
 _atom_site_label
 _atom_site_symmetry_multiplicity
 _atom_site_fract_x
 _atom_site_fract_y
 _atom_site_fract_z
 _atom_site_occupancy
  V  V0  1  0.23278000  0.41539200  0.75000000  1
  V  V1  1  0.26722000  0.91539200  0.25000000  1
  V  V2  1  0.73278000  0.08460800  0.75000000  1
  V  V3  1  0.76722000  0.58460800  0.25000000  1
  F  F4  1  0.99702500  0.01956700  0.25000000  1
  F  F5  1  0.06605700  0.59292400  0.75000000  1
  F  F6  1  0.07042100  0.70846300  0.25000000  1
  F  F7  1  0.22562900  0.37526700  0.96086800  1
  F  F8  1  0.22562900  0.37526700  0.53913200  1
  F  F9  1  0.27437100  0.87526700  0.03913200  1
  F  F10  1  0.27437100  0.87526700  0.46086800  1
  F  F11  1  0.42957900  0.20846300  0.75000000  1
  F  F12  1  0.43394300  0.09292400  0.25000000  1
  F  F13  1  0.50297500  0.51956700  0.75000000  1
  F  F14  1  0.49702500  0.48043300  0.25000000  1
  F  F15  1  0.56605700  0.90707600  0.75000000  1
  F  F16  1  0.57042100  0.79153700  0.25000000  1
  F  F17  1  0.72562900  0.12473300  0.53913200  1
  F  F18  1  0.72562900  0.12473300  0.96086800  1
  F  F19  1  0.77437100  0.62473300  0.03913200  1
  F  F20  1  0.77437100  0.62473300  0.46086800  1
  F  F21  1  0.92957900  0.29153700  0.75000000  1
  F  F22  1  0.93394300  0.40707600  0.25000000  1
  F  F23  1  0.00297500  0.98043300  0.75000000  1
