# generated using pymatgen
data_Y13Ho3O24
_symmetry_space_group_name_H-M   'P 1'
_cell_length_a   9.25748200
_cell_length_b   9.25835056
_cell_length_c   9.26007848
_cell_angle_alpha   109.47690125
_cell_angle_beta   109.46433107
_cell_angle_gamma   109.45713596
_symmetry_Int_Tables_number   1
_chemical_formula_structural   Y13Ho3O24
_chemical_formula_sum   'Y13 Ho3 O24'
_cell_volume   611.08441449
_cell_formula_units_Z   1
loop_
 _symmetry_equiv_pos_site_id
 _symmetry_equiv_pos_as_xyz
  1  'x, y, z'
loop_
 _atom_site_type_symbol
 _atom_site_label
 _atom_site_symmetry_multiplicity
 _atom_site_fract_x
 _atom_site_fract_y
 _atom_site_fract_z
 _atom_site_occupancy
  Y  Y0  1  0.03177000  0.78156200  0.74981900  1
  Y  Y1  1  0.50025900  0.00030900  0.00048100  1
  Y  Y2  1  0.21740200  0.25033100  0.96793300  1
  Y  Y3  1  0.28244500  0.74945600  0.53209900  1
  Y  Y4  1  0.25039900  0.96779500  0.21792300  1
  Y  Y5  1  0.24961500  0.46734900  0.71729600  1
  Y  Y6  1  0.99954400  0.00011800  0.49995800  1
  Y  Y7  1  0.53310700  0.28299700  0.74963700  1
  Y  Y8  1  0.46722200  0.71740500  0.25022000  1
  Y  Y9  1  0.74986800  0.53208400  0.28247600  1
  Y  Y10  1  0.74993300  0.03274800  0.78212700  1
  Y  Y11  1  0.78258000  0.74966600  0.03204600  1
  Y  Y12  1  0.96769700  0.21808100  0.25011200  1
  Ho  Ho13  1  0.50016700  0.49963800  0.49992000  1
  Ho  Ho14  1  0.99984500  0.49988300  0.99941400  1
  Ho  Ho15  1  0.71741500  0.25057300  0.46778000  1
  O  O16  1  0.23843600  0.51150800  0.96879200  1
  O  O17  1  0.26044600  0.72923000  0.77179800  1
  O  O18  1  0.72850500  0.95771400  0.98858700  1
  O  O19  1  0.03084400  0.76009400  0.48861500  1
  O  O20  1  0.53141900  0.54269600  0.76953700  1
  O  O21  1  0.22685600  0.73811900  0.26950100  1
  O  O22  1  0.54268100  0.76944800  0.53128200  1
  O  O23  1  0.95739800  0.98851300  0.72836300  1
  O  O24  1  0.23057400  0.46833600  0.45736900  1
  O  O25  1  0.98887200  0.72689100  0.95744900  1
  O  O26  1  0.27089600  0.22852500  0.73974800  1
  O  O27  1  0.51297200  0.97080600  0.24199000  1
  O  O28  1  0.72883000  0.77132400  0.25984500  1
  O  O29  1  0.48867500  0.03126400  0.76011000  1
  O  O30  1  0.76939500  0.52969900  0.54224900  1
  O  O31  1  0.01085100  0.27320500  0.04237100  1
  O  O32  1  0.45854800  0.23057400  0.46863400  1
  O  O33  1  0.04271600  0.01161900  0.27193000  1
  O  O34  1  0.77300100  0.26179000  0.72890300  1
  O  O35  1  0.46852700  0.45733500  0.23042900  1
  O  O36  1  0.96768700  0.23999300  0.51132400  1
  O  O37  1  0.27143400  0.04222700  0.01131700  1
  O  O38  1  0.76170300  0.48834500  0.03118100  1
  O  O39  1  0.73946700  0.27075200  0.22943300  1
