# generated using pymatgen
data_Sm11Y5O24
_symmetry_space_group_name_H-M   'P 1'
_cell_length_a   9.44477900
_cell_length_b   9.44565581
_cell_length_c   9.45700006
_cell_angle_alpha   109.47112486
_cell_angle_beta   109.47620508
_cell_angle_gamma   109.41317293
_symmetry_Int_Tables_number   1
_chemical_formula_structural   Sm11Y5O24
_chemical_formula_sum   'Sm11 Y5 O24'
_cell_volume   649.89005233
_cell_formula_units_Z   1
loop_
 _symmetry_equiv_pos_site_id
 _symmetry_equiv_pos_as_xyz
  1  'x, y, z'
loop_
 _atom_site_type_symbol
 _atom_site_label
 _atom_site_symmetry_multiplicity
 _atom_site_fract_x
 _atom_site_fract_y
 _atom_site_fract_z
 _atom_site_occupancy
  Sm  Sm0  1  0.50487200  0.00203300  0.00383900  1
  Sm  Sm1  1  0.21864000  0.46938000  0.74988300  1
  Sm  Sm2  1  0.99423000  0.00026100  0.49815900  1
  Sm  Sm3  1  0.00012100  0.49787900  0.99935700  1
  Sm  Sm4  1  0.50019600  0.50061100  0.50011100  1
  Sm  Sm5  1  0.25121700  0.71788600  0.46769000  1
  Sm  Sm6  1  0.78119800  0.53194700  0.24996300  1
  Sm  Sm7  1  0.28163400  0.03155100  0.25078900  1
  Sm  Sm8  1  0.53289800  0.25022200  0.78141900  1
  Sm  Sm9  1  0.96622700  0.74933300  0.71914000  1
  Sm  Sm10  1  0.24824900  0.21866600  0.96881000  1
  Y  Y11  1  0.75015300  0.78438500  0.03316800  1
  Y  Y12  1  0.03024500  0.24862100  0.28113900  1
  Y  Y13  1  0.47009700  0.75215500  0.21924600  1
  Y  Y14  1  0.71780900  0.96768900  0.75068300  1
  Y  Y15  1  0.74987300  0.28034000  0.53194900  1
  O  O16  1  0.26859000  0.50795000  0.53775500  1
  O  O17  1  0.47378500  0.73107200  0.96193800  1
  O  O18  1  0.72582300  0.75980900  0.26718300  1
  O  O19  1  0.23088000  0.95764700  0.97074800  1
  O  O20  1  0.00644800  0.53631700  0.76809700  1
  O  O21  1  0.51735100  0.74500000  0.47020600  1
  O  O22  1  0.23124600  0.76887700  0.23909400  1
  O  O23  1  0.02613700  0.98831800  0.25747000  1
  O  O24  1  0.73715600  0.73191300  0.77342500  1
  O  O25  1  0.46369100  0.96907400  0.73168600  1
  O  O26  1  0.24647900  0.47570900  0.01621600  1
  O  O27  1  0.95439000  0.23029900  0.48382400  1
  O  O28  1  0.76087100  0.53468200  0.98842600  1
  O  O29  1  0.04125900  0.77257800  0.51191100  1
  O  O30  1  0.25488200  0.27064400  0.23005700  1
  O  O31  1  0.54570300  0.02994000  0.27516300  1
  O  O32  1  0.77121400  0.22504900  0.75590000  1
  O  O33  1  0.96567700  0.01153900  0.74077300  1
  O  O34  1  0.98679000  0.45378500  0.22764200  1
  O  O35  1  0.49292600  0.26075700  0.53023600  1
  O  O36  1  0.77518700  0.04249600  0.03070800  1
  O  O37  1  0.26794000  0.23897100  0.72647700  1
  O  O38  1  0.72884800  0.48456700  0.45879200  1
  O  O39  1  0.52906700  0.27004700  0.04093000  1
