# generated using pymatgen
data_Na4V3O8
_symmetry_space_group_name_H-M   'P 1'
_cell_length_a   4.25998700
_cell_length_b   6.89386900
_cell_length_c   12.21486002
_cell_angle_alpha   76.62815942
_cell_angle_beta   90.00000000
_cell_angle_gamma   90.00000000
_symmetry_Int_Tables_number   1
_chemical_formula_structural   Na4V3O8
_chemical_formula_sum   'Na8 V6 O16'
_cell_volume   348.99835664
_cell_formula_units_Z   2
loop_
 _symmetry_equiv_pos_site_id
 _symmetry_equiv_pos_as_xyz
  1  'x, y, z'
loop_
 _atom_site_type_symbol
 _atom_site_label
 _atom_site_symmetry_multiplicity
 _atom_site_fract_x
 _atom_site_fract_y
 _atom_site_fract_z
 _atom_site_occupancy
  Na  Na0  1  0.75000000  0.17848900  0.40363700  1
  Na  Na1  1  0.75000000  0.03304300  0.66728300  1
  Na  Na2  1  0.25000000  0.58581100  0.04695100  1
  Na  Na3  1  0.25000000  0.46008300  0.29109000  1
  Na  Na4  1  0.75000000  0.53991700  0.70891000  1
  Na  Na5  1  0.75000000  0.41418900  0.95304900  1
  Na  Na6  1  0.25000000  0.96695700  0.33271700  1
  Na  Na7  1  0.25000000  0.82151100  0.59636300  1
  V  V8  1  0.25000000  0.09495100  0.07420500  1
  V  V9  1  0.25000000  0.35039900  0.55786000  1
  V  V10  1  0.25000000  0.21021300  0.81144000  1
  V  V11  1  0.75000000  0.78978700  0.18856000  1
  V  V12  1  0.75000000  0.64960100  0.44214000  1
  V  V13  1  0.75000000  0.90504900  0.92579500  1
  O  O14  1  0.75000000  0.04973200  0.06549100  1
  O  O15  1  0.25000000  0.24376700  0.16820400  1
  O  O16  1  0.25000000  0.19079100  0.46131400  1
  O  O17  1  0.25000000  0.09352900  0.69001200  1
  O  O18  1  0.75000000  0.17721700  0.82771700  1
  O  O19  1  0.75000000  0.54237000  0.30756200  1
  O  O20  1  0.75000000  0.38513700  0.54516000  1
  O  O21  1  0.75000000  0.67282700  0.06349000  1
  O  O22  1  0.25000000  0.32717300  0.93651000  1
  O  O23  1  0.25000000  0.61486300  0.45484000  1
  O  O24  1  0.25000000  0.45763000  0.69243800  1
  O  O25  1  0.25000000  0.82278300  0.17228300  1
  O  O26  1  0.75000000  0.90647100  0.30998800  1
  O  O27  1  0.75000000  0.80920900  0.53868600  1
  O  O28  1  0.75000000  0.75623300  0.83179600  1
  O  O29  1  0.25000000  0.95026800  0.93450900  1
