# generated using pymatgen
data_VOF
_symmetry_space_group_name_H-M   'P 1'
_cell_length_a   3.09800600
_cell_length_b   4.74879000
_cell_length_c   18.99785400
_cell_angle_alpha   87.48756785
_cell_angle_beta   90.00000000
_cell_angle_gamma   90.00000000
_symmetry_Int_Tables_number   1
_chemical_formula_structural   VOF
_chemical_formula_sum   'V8 O8 F8'
_cell_volume   279.22358034
_cell_formula_units_Z   8
loop_
 _symmetry_equiv_pos_site_id
 _symmetry_equiv_pos_as_xyz
  1  'x, y, z'
loop_
 _atom_site_type_symbol
 _atom_site_label
 _atom_site_symmetry_multiplicity
 _atom_site_fract_x
 _atom_site_fract_y
 _atom_site_fract_z
 _atom_site_occupancy
  V  V0  1  0.00000000  0.92227800  0.12425000  1
  V  V1  1  0.00000000  0.07772200  0.87575000  1
  V  V2  1  0.00000000  0.97900700  0.37498300  1
  V  V3  1  0.00000000  0.02099300  0.62501700  1
  V  V4  1  0.50000000  0.50000000  0.00000000  1
  V  V5  1  0.50000000  0.54398400  0.75030500  1
  V  V6  1  0.50000000  0.45601600  0.24969500  1
  V  V7  1  0.50000000  0.50000000  0.50000000  1
  O  O8  1  0.50000000  0.77059400  0.07335100  1
  O  O9  1  0.00000000  0.73527500  0.70075300  1
  O  O10  1  0.00000000  0.69363400  0.45040600  1
  O  O11  1  0.00000000  0.65495900  0.20095000  1
  O  O12  1  0.00000000  0.26472500  0.29924700  1
  O  O13  1  0.00000000  0.34504100  0.79905000  1
  O  O14  1  0.00000000  0.30636600  0.54959400  1
  O  O15  1  0.50000000  0.22940600  0.92664900  1
  F  F16  1  0.50000000  0.77299900  0.32667200  1
  F  F17  1  0.50000000  0.81483300  0.57675900  1
  F  F18  1  0.50000000  0.84172900  0.82900300  1
  F  F19  1  0.00000000  0.71549500  0.94946200  1
  F  F20  1  0.00000000  0.28450500  0.05053800  1
  F  F21  1  0.50000000  0.15827100  0.17099700  1
  F  F22  1  0.50000000  0.18516700  0.42324100  1
  F  F23  1  0.50000000  0.22700100  0.67332800  1
