# generated using pymatgen
data_VO2F
_symmetry_space_group_name_H-M   'P 1'
_cell_length_a   5.05350800
_cell_length_b   5.06155087
_cell_length_c   12.99684374
_cell_angle_alpha   87.85422825
_cell_angle_beta   88.13282830
_cell_angle_gamma   62.10262010
_symmetry_Int_Tables_number   1
_chemical_formula_structural   VO2F
_chemical_formula_sum   'V6 O12 F6'
_cell_volume   293.55823463
_cell_formula_units_Z   6
loop_
 _symmetry_equiv_pos_site_id
 _symmetry_equiv_pos_as_xyz
  1  'x, y, z'
loop_
 _atom_site_type_symbol
 _atom_site_label
 _atom_site_symmetry_multiplicity
 _atom_site_fract_x
 _atom_site_fract_y
 _atom_site_fract_z
 _atom_site_occupancy
  V  V0  1  0.73886000  0.62569800  0.16437800  1
  V  V1  1  0.62230000  0.70343500  0.66540600  1
  V  V2  1  0.00000000  0.00000000  0.50000000  1
  V  V3  1  0.37770000  0.29656500  0.33459400  1
  V  V4  1  0.00000000  0.00000000  0.00000000  1
  V  V5  1  0.26114000  0.37430200  0.83562200  1
  O  O6  1  0.66106300  0.07531100  0.41784200  1
  O  O7  1  0.33893700  0.92468900  0.58215800  1
  O  O8  1  0.07005700  0.67423300  0.91562700  1
  O  O9  1  0.91848800  0.75572800  0.58140800  1
  O  O10  1  0.56894300  0.41707600  0.25088700  1
  O  O11  1  0.25402900  0.07917300  0.91905400  1
  O  O12  1  0.08151200  0.24427200  0.41859200  1
  O  O13  1  0.74597100  0.92082700  0.08094600  1
  O  O14  1  0.43105700  0.58292400  0.74911300  1
  O  O15  1  0.92994300  0.32576700  0.08437300  1
  O  O16  1  0.00374900  0.41642900  0.75047800  1
  O  O17  1  0.99625100  0.58357100  0.24952200  1
  F  F18  1  0.26248400  0.66678600  0.41590700  1
  F  F19  1  0.32318300  0.73971600  0.08385700  1
  F  F20  1  0.59920900  0.00632200  0.74950200  1
  F  F21  1  0.40079100  0.99367800  0.25049800  1
  F  F22  1  0.67681700  0.26028400  0.91614300  1
  F  F23  1  0.73751600  0.33321400  0.58409300  1
