# generated using pymatgen
data_Hf3Sc4O12
_symmetry_space_group_name_H-M   'P 1'
_cell_length_a   6.17800300
_cell_length_b   6.18630304
_cell_length_c   12.31602382
_cell_angle_alpha   99.32635044
_cell_angle_beta   99.30290620
_cell_angle_gamma   99.51399678
_symmetry_Int_Tables_number   1
_chemical_formula_structural   Hf3Sc4O12
_chemical_formula_sum   'Hf6 Sc8 O24'
_cell_volume   449.42569352
_cell_formula_units_Z   2
loop_
 _symmetry_equiv_pos_site_id
 _symmetry_equiv_pos_as_xyz
  1  'x, y, z'
loop_
 _atom_site_type_symbol
 _atom_site_label
 _atom_site_symmetry_multiplicity
 _atom_site_fract_x
 _atom_site_fract_y
 _atom_site_fract_z
 _atom_site_occupancy
  Hf  Hf0  1  0.14142600  0.61242300  0.40659200  1
  Hf  Hf1  1  0.68350600  0.85782300  0.94387900  1
  Hf  Hf2  1  0.99521300  0.99757300  0.25076500  1
  Hf  Hf3  1  0.00478700  0.00242700  0.74923500  1
  Hf  Hf4  1  0.31649400  0.14217700  0.05612100  1
  Hf  Hf5  1  0.85857400  0.38757700  0.59340800  1
  Sc  Sc6  1  0.13707900  0.60519800  0.90609100  1
  Sc  Sc7  1  0.39058300  0.68707900  0.68029800  1
  Sc  Sc8  1  0.39270000  0.68168600  0.18107400  1
  Sc  Sc9  1  0.68008600  0.85960600  0.44446400  1
  Sc  Sc10  1  0.31991400  0.14039400  0.55553600  1
  Sc  Sc11  1  0.60941700  0.31292100  0.31970200  1
  Sc  Sc12  1  0.60730000  0.31831400  0.81892600  1
  Sc  Sc13  1  0.86292100  0.39480200  0.09390900  1
  O  O14  1  0.09268400  0.93915600  0.41045500  1
  O  O15  1  0.09054500  0.94534000  0.91206800  1
  O  O16  1  0.05202300  0.67924500  0.70097500  1
  O  O17  1  0.05987400  0.67657900  0.21013600  1
  O  O18  1  0.41527700  0.81740500  0.53723100  1
  O  O19  1  0.42700600  0.82501700  0.03960000  1
  O  O20  1  0.17927100  0.41735100  0.03700200  1
  O  O21  1  0.17462300  0.41928600  0.53587000  1
  O  O22  1  0.67657000  0.90802100  0.27755900  1
  O  O23  1  0.68261500  0.90813300  0.78191500  1
  O  O24  1  0.41995500  0.57354100  0.34021400  1
  O  O25  1  0.42354500  0.58478500  0.84149500  1
  O  O26  1  0.58004500  0.42645900  0.65978600  1
  O  O27  1  0.57645500  0.41521500  0.15850500  1
  O  O28  1  0.32343000  0.09197900  0.72244100  1
  O  O29  1  0.31738500  0.09186700  0.21808500  1
  O  O30  1  0.82537700  0.58071400  0.46413000  1
  O  O31  1  0.82072900  0.58264900  0.96299800  1
  O  O32  1  0.57299400  0.17498300  0.96040000  1
  O  O33  1  0.58472300  0.18259500  0.46276900  1
  O  O34  1  0.94797700  0.32075500  0.29902500  1
  O  O35  1  0.94012600  0.32342100  0.78986400  1
  O  O36  1  0.90731600  0.06084400  0.58954500  1
  O  O37  1  0.90945500  0.05466000  0.08793200  1
