# generated using pymatgen
data_Sr6Bi2O11
_symmetry_space_group_name_H-M   'P 1'
_cell_length_a   8.58263300
_cell_length_b   8.61755800
_cell_length_c   8.85599108
_cell_angle_alpha   89.87497257
_cell_angle_beta   90.00000000
_cell_angle_gamma   90.00000000
_symmetry_Int_Tables_number   1
_chemical_formula_structural   Sr6Bi2O11
_chemical_formula_sum   'Sr12 Bi4 O22'
_cell_volume   654.99938757
_cell_formula_units_Z   2
loop_
 _symmetry_equiv_pos_site_id
 _symmetry_equiv_pos_as_xyz
  1  'x, y, z'
loop_
 _atom_site_type_symbol
 _atom_site_label
 _atom_site_symmetry_multiplicity
 _atom_site_fract_x
 _atom_site_fract_y
 _atom_site_fract_z
 _atom_site_occupancy
  Sr  Sr0  1  0.25000000  0.25044600  0.00116800  1
  Sr  Sr1  1  0.48666600  0.98209800  0.28343700  1
  Sr  Sr2  1  0.01333400  0.98209800  0.28343700  1
  Sr  Sr3  1  0.75000000  0.24878000  0.42168600  1
  Sr  Sr4  1  0.48356700  0.51335300  0.28418200  1
  Sr  Sr5  1  0.01643300  0.51335300  0.28418200  1
  Sr  Sr6  1  0.98666600  0.01790200  0.71656300  1
  Sr  Sr7  1  0.75000000  0.74955400  0.99883200  1
  Sr  Sr8  1  0.51333400  0.01790200  0.71656300  1
  Sr  Sr9  1  0.98356700  0.48664700  0.71581800  1
  Sr  Sr10  1  0.25000000  0.75122000  0.57831400  1
  Sr  Sr11  1  0.51643300  0.48664700  0.71581800  1
  Bi  Bi12  1  0.75000000  0.25097800  0.03620800  1
  Bi  Bi13  1  0.25000000  0.25050100  0.50067700  1
  Bi  Bi14  1  0.25000000  0.74902200  0.96379200  1
  Bi  Bi15  1  0.75000000  0.74949900  0.49932300  1
  O  O16  1  0.25000000  0.00349700  0.48400300  1
  O  O17  1  0.75000000  0.99650300  0.51599700  1
  O  O18  1  0.98073400  0.24989000  0.11888500  1
  O  O19  1  0.51926600  0.24989000  0.11888500  1
  O  O20  1  0.75000000  0.75484600  0.26602000  1
  O  O21  1  0.75000000  0.01802300  0.11081600  1
  O  O22  1  0.75000000  0.50220700  0.50855800  1
  O  O23  1  0.25000000  0.74747800  0.20148700  1
  O  O24  1  0.25000000  0.49779300  0.49144200  1
  O  O25  1  0.25000000  0.98197700  0.88918400  1
  O  O26  1  0.25000000  0.24515400  0.73398000  1
  O  O27  1  0.00261500  0.24934400  0.51516800  1
  O  O28  1  0.48073400  0.75011000  0.88111500  1
  O  O29  1  0.01926600  0.75011000  0.88111500  1
  O  O30  1  0.49738500  0.24934400  0.51516800  1
  O  O31  1  0.25000000  0.25864400  0.26769200  1
  O  O32  1  0.25000000  0.51741800  0.88540500  1
  O  O33  1  0.75000000  0.74135600  0.73230800  1
  O  O34  1  0.75000000  0.48258200  0.11459500  1
  O  O35  1  0.99738500  0.75065600  0.48483200  1
  O  O36  1  0.50261500  0.75065600  0.48483200  1
  O  O37  1  0.75000000  0.25252200  0.79851300  1
