# generated using pymatgen
data_ZnPH5C2N4O3
_symmetry_space_group_name_H-M   'P 1'
_cell_length_a   8.40185900
_cell_length_b   9.39193600
_cell_length_c   9.89012379
_cell_angle_alpha   75.56855355
_cell_angle_beta   90.00000000
_cell_angle_gamma   90.00000000
_symmetry_Int_Tables_number   1
_chemical_formula_structural   ZnPH5C2N4O3
_chemical_formula_sum   'Zn4 P4 H20 C8 N16 O12'
_cell_volume   755.80173635
_cell_formula_units_Z   4
loop_
 _symmetry_equiv_pos_site_id
 _symmetry_equiv_pos_as_xyz
  1  'x, y, z'
loop_
 _atom_site_type_symbol
 _atom_site_label
 _atom_site_symmetry_multiplicity
 _atom_site_fract_x
 _atom_site_fract_y
 _atom_site_fract_z
 _atom_site_occupancy
  Zn  Zn0  1  0.60562000  0.45962100  0.32317000  1
  Zn  Zn1  1  0.89438000  0.95962100  0.32317000  1
  Zn  Zn2  1  0.10562000  0.04037900  0.67683000  1
  Zn  Zn3  1  0.39438000  0.54037900  0.67683000  1
  P  P4  1  0.83627200  0.20993700  0.47977600  1
  P  P5  1  0.33627200  0.29006300  0.52022400  1
  P  P6  1  0.66372800  0.70993700  0.47977600  1
  P  P7  1  0.16372800  0.79006300  0.52022400  1
  H  H8  1  0.16501900  0.32343200  0.09485200  1
  H  H9  1  0.02148000  0.30870700  0.22181000  1
  H  H10  1  0.33498100  0.82343200  0.09485200  1
  H  H11  1  0.41598900  0.16355400  0.27455300  1
  H  H12  1  0.52268100  0.99816900  0.32606900  1
  H  H13  1  0.47852000  0.80870700  0.22181000  1
  H  H14  1  0.08401100  0.66355400  0.27455300  1
  H  H15  1  0.97731900  0.49816900  0.32606900  1
  H  H16  1  0.68836900  0.13836900  0.50354900  1
  H  H17  1  0.18836900  0.36163100  0.49645100  1
  H  H18  1  0.81163100  0.63836900  0.50354900  1
  H  H19  1  0.31163100  0.86163100  0.49645100  1
  H  H20  1  0.02268100  0.50183100  0.67393100  1
  H  H21  1  0.91598900  0.33644600  0.72544700  1
  H  H22  1  0.52148000  0.19129300  0.77819000  1
  H  H23  1  0.47731900  0.00183100  0.67393100  1
  H  H24  1  0.58401100  0.83644600  0.72544700  1
  H  H25  1  0.66501900  0.17656800  0.90514800  1
  H  H26  1  0.97852000  0.69129300  0.77819000  1
  H  H27  1  0.83498100  0.67656800  0.90514800  1
  C  C28  1  0.70419500  0.43904400  0.02737000  1
  C  C29  1  0.37033800  0.01124900  0.16178300  1
  C  C30  1  0.79580500  0.93904400  0.02737000  1
  C  C31  1  0.12966200  0.51124900  0.16178300  1
  C  C32  1  0.87033800  0.48875100  0.83821700  1
  C  C33  1  0.20419500  0.06095600  0.97263000  1
  C  C34  1  0.62966200  0.98875100  0.83821700  1
  C  C35  1  0.29580500  0.56095600  0.97263000  1
  N  N36  1  0.26110300  0.09839200  0.07918300  1
  N  N37  1  0.23889700  0.59839200  0.07918300  1
  N  N38  1  0.64687400  0.46680000  0.12709900  1
  N  N39  1  0.09213300  0.37644500  0.14855100  1
  N  N40  1  0.44565500  0.06404200  0.25755100  1
  N  N41  1  0.85312600  0.96680000  0.12709900  1
  N  N42  1  0.40786700  0.87644500  0.14855100  1
  N  N43  1  0.05434500  0.56404200  0.25755100  1
  N  N44  1  0.94565500  0.43595800  0.74244900  1
  N  N45  1  0.59213300  0.12355500  0.85144900  1
  N  N46  1  0.14687400  0.03320000  0.87290100  1
  N  N47  1  0.55434500  0.93595800  0.74244900  1
  N  N48  1  0.90786700  0.62355500  0.85144900  1
  N  N49  1  0.35312600  0.53320000  0.87290100  1
  N  N50  1  0.76110300  0.40160800  0.92081700  1
  N  N51  1  0.73889700  0.90160800  0.92081700  1
  O  O52  1  0.92377300  0.15157000  0.36676400  1
  O  O53  1  0.42440200  0.32500600  0.37905500  1
  O  O54  1  0.80354700  0.37619400  0.42839900  1
  O  O55  1  0.57622700  0.65157000  0.36676400  1
  O  O56  1  0.07559800  0.82500600  0.37905500  1
  O  O57  1  0.30354700  0.12380600  0.57160100  1
  O  O58  1  0.69645300  0.87619400  0.42839900  1
  O  O59  1  0.92440200  0.17499400  0.62094500  1
  O  O60  1  0.42377300  0.34843000  0.63323600  1
  O  O61  1  0.19645300  0.62380600  0.57160100  1
  O  O62  1  0.57559800  0.67499400  0.62094500  1
  O  O63  1  0.07622700  0.84843000  0.63323600  1
