# generated using pymatgen
data_Zr2N2O
_symmetry_space_group_name_H-M   'P 1'
_cell_length_a   8.85358200
_cell_length_b   8.87994132
_cell_length_c   8.88288947
_cell_angle_alpha   109.56903153
_cell_angle_beta   109.47041911
_cell_angle_gamma   109.26293402
_symmetry_Int_Tables_number   1
_chemical_formula_structural   Zr2N2O
_chemical_formula_sum   'Zr16 N16 O8'
_cell_volume   538.33677212
_cell_formula_units_Z   8
loop_
 _symmetry_equiv_pos_site_id
 _symmetry_equiv_pos_as_xyz
  1  'x, y, z'
loop_
 _atom_site_type_symbol
 _atom_site_label
 _atom_site_symmetry_multiplicity
 _atom_site_fract_x
 _atom_site_fract_y
 _atom_site_fract_z
 _atom_site_occupancy
  Zr  Zr0  1  0.46151800  0.21638900  0.25812500  1
  Zr  Zr1  1  0.00697200  0.00916000  0.99640900  1
  Zr  Zr2  1  0.50807700  0.51656000  0.00755500  1
  Zr  Zr3  1  0.98915000  0.49794300  0.49789300  1
  Zr  Zr4  1  0.74733600  0.46414500  0.71305200  1
  Zr  Zr5  1  0.24152900  0.02516000  0.78406200  1
  Zr  Zr6  1  0.71627700  0.25495700  0.96910400  1
  Zr  Zr7  1  0.21438600  0.25049600  0.46112700  1
  Zr  Zr8  1  0.96037000  0.70590300  0.24847700  1
  Zr  Zr9  1  0.03913400  0.28614800  0.74917900  1
  Zr  Zr10  1  0.78500000  0.75033500  0.52880400  1
  Zr  Zr11  1  0.27911200  0.74000600  0.02199500  1
  Zr  Zr12  1  0.75317300  0.96858600  0.21552400  1
  Zr  Zr13  1  0.49706200  0.99492400  0.50739600  1
  Zr  Zr14  1  0.25183500  0.53152200  0.28102900  1
  Zr  Zr15  1  0.53921700  0.79817600  0.75692800  1
  N  N16  1  0.46392200  0.23391000  0.51086900  1
  N  N17  1  0.95792800  0.22521800  0.46648800  1
  N  N18  1  0.73686700  0.50841100  0.96318800  1
  N  N19  1  0.02857700  0.54228900  0.77204600  1
  N  N20  1  0.23052300  0.95771300  0.99038000  1
  N  N21  1  0.98641000  0.03604200  0.76311400  1
  N  N22  1  0.72453800  0.46497900  0.45000000  1
  N  N23  1  0.48314300  0.72386500  0.94940200  1
  N  N24  1  0.77400500  0.04302000  0.01174200  1
  N  N25  1  0.97037300  0.45655300  0.22830800  1
  N  N26  1  0.26270200  0.48853400  0.03541600  1
  N  N27  1  0.04815700  0.77251600  0.53535000  1
  N  N28  1  0.45839500  0.99395500  0.72857600  1
  N  N29  1  0.23612300  0.27071600  0.23072100  1
  N  N30  1  0.72972200  0.74014700  0.27060800  1
  N  N31  1  0.53085300  0.76099100  0.48919600  1
  O  O32  1  0.27399400  0.26159300  0.72935400  1
  O  O33  1  0.76306400  0.72657000  0.77341100  1
  O  O34  1  0.54601500  0.00920800  0.27383100  1
  O  O35  1  0.77127800  0.22446400  0.73501200  1
  O  O36  1  0.27630800  0.53077300  0.54889300  1
  O  O37  1  0.01463800  0.96407500  0.23915800  1
  O  O38  1  0.51253500  0.27313700  0.04480400  1
  O  O39  1  0.22978500  0.78091000  0.26347200  1
