# generated using pymatgen
data_Ba6Ca11I34
_symmetry_space_group_name_H-M   'P 1'
_cell_length_a   11.57552800
_cell_length_b   14.90644839
_cell_length_c   15.04720921
_cell_angle_alpha   81.82438940
_cell_angle_beta   70.77797664
_cell_angle_gamma   71.77072937
_symmetry_Int_Tables_number   1
_chemical_formula_structural   Ba6Ca11I34
_chemical_formula_sum   'Ba6 Ca11 I34'
_cell_volume   2326.37701802
_cell_formula_units_Z   1
loop_
 _symmetry_equiv_pos_site_id
 _symmetry_equiv_pos_as_xyz
  1  'x, y, z'
loop_
 _atom_site_type_symbol
 _atom_site_label
 _atom_site_symmetry_multiplicity
 _atom_site_fract_x
 _atom_site_fract_y
 _atom_site_fract_z
 _atom_site_occupancy
  Ba  Ba0  1  0.34198000  0.34105600  0.02633900  1
  Ba  Ba1  1  0.23497400  0.65953800  0.32205500  1
  Ba  Ba2  1  0.40171300  0.06676600  0.77389000  1
  Ba  Ba3  1  0.59828700  0.93323400  0.22611000  1
  Ba  Ba4  1  0.76502600  0.34046200  0.67794500  1
  Ba  Ba5  1  0.65802000  0.65894400  0.97366100  1
  Ca  Ca6  1  0.00000000  0.00000000  0.50000000  1
  Ca  Ca7  1  0.19451300  0.99769300  0.18572600  1
  Ca  Ca8  1  0.10548900  0.75210000  0.01438200  1
  Ca  Ca9  1  0.27655000  0.26165300  0.38023800  1
  Ca  Ca10  1  0.19251700  0.49141100  0.70358700  1
  Ca  Ca11  1  0.31263900  0.75494600  0.69521800  1
  Ca  Ca12  1  0.68736100  0.24505400  0.30478200  1
  Ca  Ca13  1  0.80748300  0.50858900  0.29641300  1
  Ca  Ca14  1  0.72345000  0.73834700  0.61976200  1
  Ca  Ca15  1  0.89451100  0.24790000  0.98561800  1
  Ca  Ca16  1  0.80548700  0.00230700  0.81427400  1
  I  I17  1  0.16645300  0.12534400  0.00601300  1
  I  I18  1  0.10529000  0.40140600  0.26108300  1
  I  I19  1  0.10118500  0.15644900  0.53051700  1
  I  I20  1  0.35205700  0.13482900  0.20454500  1
  I  I21  1  0.04938000  0.84873100  0.19717700  1
  I  I22  1  0.07415200  0.37628900  0.88514900  1
  I  I23  1  0.17776700  0.38860100  0.55037200  1
  I  I24  1  0.34559700  0.61142800  0.06925000  1
  I  I25  1  0.44898600  0.38750700  0.25796700  1
  I  I26  1  0.04301800  0.87482600  0.67790600  1
  I  I27  1  0.52401600  0.11269900  0.41770800  1
  I  I28  1  0.16929700  0.62920600  0.84830500  1
  I  I29  1  0.27486800  0.88611100  0.36427700  1
  I  I30  1  0.31476300  0.62664200  0.54147800  1
  I  I31  1  0.45972900  0.87618900  0.07415200  1
  I  I32  1  0.74756100  0.11791700  0.13325300  1
  I  I33  1  0.43782700  0.35397100  0.75804200  1
  I  I34  1  0.56217300  0.64602900  0.24195800  1
  I  I35  1  0.25243900  0.88208300  0.86674700  1
  I  I36  1  0.54027100  0.12381100  0.92584800  1
  I  I37  1  0.68523700  0.37335800  0.45852200  1
  I  I38  1  0.72513200  0.11388900  0.63572300  1
  I  I39  1  0.83070300  0.37079400  0.15169500  1
  I  I40  1  0.47598400  0.88730100  0.58229200  1
  I  I41  1  0.95698200  0.12517400  0.32209400  1
  I  I42  1  0.55101400  0.61249300  0.74203300  1
  I  I43  1  0.65440300  0.38857200  0.93075000  1
  I  I44  1  0.82223300  0.61139900  0.44962800  1
  I  I45  1  0.92584800  0.62371100  0.11485100  1
  I  I46  1  0.95062000  0.15126900  0.80282300  1
  I  I47  1  0.64794300  0.86517100  0.79545500  1
  I  I48  1  0.89881500  0.84355100  0.46948300  1
  I  I49  1  0.89471000  0.59859400  0.73891700  1
  I  I50  1  0.83354700  0.87465600  0.99398700  1
