# generated using pymatgen
data_Nb2O5
_symmetry_space_group_name_H-M   'P 1'
_cell_length_a   7.78651500
_cell_length_b   11.48582774
_cell_length_c   11.57883425
_cell_angle_alpha   88.01949215
_cell_angle_beta   80.32456039
_cell_angle_gamma   80.26184485
_symmetry_Int_Tables_number   1
_chemical_formula_structural   Nb2O5
_chemical_formula_sum   'Nb20 O50'
_cell_volume   1006.08906072
_cell_formula_units_Z   10
loop_
 _symmetry_equiv_pos_site_id
 _symmetry_equiv_pos_as_xyz
  1  'x, y, z'
loop_
 _atom_site_type_symbol
 _atom_site_label
 _atom_site_symmetry_multiplicity
 _atom_site_fract_x
 _atom_site_fract_y
 _atom_site_fract_z
 _atom_site_occupancy
  Nb  Nb0  1  0.64170700  0.32078000  0.11755000  1
  Nb  Nb1  1  0.13991000  0.32572800  0.10961100  1
  Nb  Nb2  1  0.58005500  0.20702200  0.44116600  1
  Nb  Nb3  1  0.09574600  0.20904200  0.43888200  1
  Nb  Nb4  1  0.31224000  0.55364100  0.19909400  1
  Nb  Nb5  1  0.80745100  0.55598800  0.21355000  1
  Nb  Nb6  1  0.80368100  0.11354000  0.67603800  1
  Nb  Nb7  1  0.30135100  0.11366600  0.67789500  1
  Nb  Nb8  1  0.76560800  0.41459700  0.52211900  1
  Nb  Nb9  1  0.75081600  0.99782200  0.99893900  1
  Nb  Nb10  1  0.24918400  0.00217800  0.00106100  1
  Nb  Nb11  1  0.23439200  0.58540300  0.47788100  1
  Nb  Nb12  1  0.19631900  0.88646000  0.32396200  1
  Nb  Nb13  1  0.69864900  0.88633400  0.32210500  1
  Nb  Nb14  1  0.68776000  0.44635900  0.80090600  1
  Nb  Nb15  1  0.19254900  0.44401200  0.78645000  1
  Nb  Nb16  1  0.41994500  0.79297800  0.55883400  1
  Nb  Nb17  1  0.90425400  0.79095800  0.56111800  1
  Nb  Nb18  1  0.35829300  0.67922000  0.88245000  1
  Nb  Nb19  1  0.86009000  0.67427200  0.89038900  1
  O  O20  1  0.19164200  0.16451900  0.06803900  1
  O  O21  1  0.69164800  0.16525100  0.06803800  1
  O  O22  1  0.64843100  0.03902500  0.39078300  1
  O  O23  1  0.13723800  0.03747400  0.39174500  1
  O  O24  1  0.87428100  0.36099100  0.13825700  1
  O  O25  1  0.37549800  0.36405500  0.13696200  1
  O  O26  1  0.60592300  0.26815100  0.29155400  1
  O  O27  1  0.11470500  0.26777400  0.29032400  1
  O  O28  1  0.33671600  0.61291500  0.04046900  1
  O  O29  1  0.83726900  0.61118600  0.04129000  1
  O  O30  1  0.32945100  0.19164300  0.48998900  1
  O  O31  1  0.82667400  0.20651700  0.48813400  1
  O  O32  1  0.57700000  0.51051700  0.18834200  1
  O  O33  1  0.07407700  0.50959200  0.18789400  1
  O  O34  1  0.55712300  0.13550000  0.63688200  1
  O  O35  1  0.05619300  0.13706800  0.63829700  1
  O  O36  1  0.29206500  0.47109800  0.36154300  1
  O  O37  1  0.78852900  0.47801400  0.36758300  1
  O  O38  1  0.01557000  0.36029000  0.52140200  1
  O  O39  1  0.54364500  0.35976300  0.52164600  1
  O  O40  1  0.27478700  0.06733100  0.83487000  1
  O  O41  1  0.77356200  0.07208200  0.83384100  1
  O  O42  1  0.25508500  0.69456500  0.28488400  1
  O  O43  1  0.75612200  0.70685300  0.26920300  1
  O  O44  1  0.50000000  0.00000000  0.00000000  1
  O  O45  1  0.00000000  0.00000000  0.00000000  1
  O  O46  1  0.74491500  0.30543500  0.71511600  1
  O  O47  1  0.24387800  0.29314700  0.73079700  1
  O  O48  1  0.72521300  0.93266900  0.16513000  1
  O  O49  1  0.22643800  0.92791800  0.16615900  1
  O  O50  1  0.45635500  0.64023700  0.47835400  1
  O  O51  1  0.98443000  0.63971000  0.47859800  1
  O  O52  1  0.70793500  0.52890200  0.63845700  1
  O  O53  1  0.21147100  0.52198600  0.63241700  1
  O  O54  1  0.94380700  0.86293200  0.36170300  1
  O  O55  1  0.44287700  0.86450000  0.36311800  1
  O  O56  1  0.42300000  0.48948300  0.81165800  1
  O  O57  1  0.92592300  0.49040800  0.81210600  1
  O  O58  1  0.17332600  0.79348300  0.51186600  1
  O  O59  1  0.67054900  0.80835700  0.51001100  1
  O  O60  1  0.66328400  0.38708500  0.95953100  1
  O  O61  1  0.16273100  0.38881400  0.95871000  1
  O  O62  1  0.39407700  0.73184900  0.70844600  1
  O  O63  1  0.88529500  0.73222600  0.70967600  1
  O  O64  1  0.62450200  0.63594500  0.86303800  1
  O  O65  1  0.12571900  0.63900900  0.86174300  1
  O  O66  1  0.35156900  0.96097500  0.60921700  1
  O  O67  1  0.86276200  0.96252600  0.60825500  1
  O  O68  1  0.30835200  0.83474900  0.93196200  1
  O  O69  1  0.80835800  0.83548100  0.93196100  1
