# generated using pymatgen
data_K2AlPCO7
_symmetry_space_group_name_H-M   'P 1'
_cell_length_a   6.62442900
_cell_length_b   5.45840600
_cell_length_c   9.61185243
_cell_angle_alpha   89.91558695
_cell_angle_beta   90.00000000
_cell_angle_gamma   90.00000000
_symmetry_Int_Tables_number   1
_chemical_formula_structural   K2AlPCO7
_chemical_formula_sum   'K4 Al2 P2 C2 O14'
_cell_volume   347.55289358
_cell_formula_units_Z   2
loop_
 _symmetry_equiv_pos_site_id
 _symmetry_equiv_pos_as_xyz
  1  'x, y, z'
loop_
 _atom_site_type_symbol
 _atom_site_label
 _atom_site_symmetry_multiplicity
 _atom_site_fract_x
 _atom_site_fract_y
 _atom_site_fract_z
 _atom_site_occupancy
  K  K0  1  0.02807600  0.24443600  0.75734600  1
  K  K1  1  0.47192400  0.24443600  0.75734600  1
  K  K2  1  0.52807600  0.75556400  0.24265400  1
  K  K3  1  0.97192400  0.75556400  0.24265400  1
  Al  Al4  1  0.75000000  0.76541700  0.64265200  1
  Al  Al5  1  0.25000000  0.23458300  0.35734800  1
  P  P6  1  0.25000000  0.73093600  0.56222000  1
  P  P7  1  0.75000000  0.26906400  0.43778000  1
  C  C8  1  0.75000000  0.72841600  0.89124300  1
  C  C9  1  0.25000000  0.27158400  0.10875700  1
  O  O10  1  0.25000000  0.29515300  0.97960800  1
  O  O11  1  0.75000000  0.93833800  0.82301500  1
  O  O12  1  0.75000000  0.54408300  0.80121700  1
  O  O13  1  0.05704600  0.75977400  0.65189100  1
  O  O14  1  0.44295400  0.75977400  0.65189100  1
  O  O15  1  0.75000000  0.07122100  0.55505900  1
  O  O16  1  0.25000000  0.46750900  0.49777200  1
  O  O17  1  0.75000000  0.53249100  0.50222800  1
  O  O18  1  0.25000000  0.92877900  0.44494100  1
  O  O19  1  0.55704600  0.24022600  0.34810900  1
  O  O20  1  0.94295400  0.24022600  0.34810900  1
  O  O21  1  0.25000000  0.45591700  0.19878300  1
  O  O22  1  0.25000000  0.06166200  0.17698500  1
  O  O23  1  0.75000000  0.70484700  0.02039200  1
