# generated using pymatgen
data_Na3CuPCO7
_symmetry_space_group_name_H-M   'P 1'
_cell_length_a   6.51904900
_cell_length_b   5.29019500
_cell_length_c   9.05636822
_cell_angle_alpha   86.66076650
_cell_angle_beta   90.00000000
_cell_angle_gamma   90.00000000
_symmetry_Int_Tables_number   1
_chemical_formula_structural   Na3CuPCO7
_chemical_formula_sum   'Na6 Cu2 P2 C2 O14'
_cell_volume   311.79705658
_cell_formula_units_Z   2
loop_
 _symmetry_equiv_pos_site_id
 _symmetry_equiv_pos_as_xyz
  1  'x, y, z'
loop_
 _atom_site_type_symbol
 _atom_site_label
 _atom_site_symmetry_multiplicity
 _atom_site_fract_x
 _atom_site_fract_y
 _atom_site_fract_z
 _atom_site_occupancy
  Na  Na0  1  0.49436400  0.24254400  0.27353200  1
  Na  Na1  1  0.99436400  0.75745600  0.72646800  1
  Na  Na2  1  0.50563600  0.75745600  0.72646800  1
  Na  Na3  1  0.00563600  0.24254400  0.27353200  1
  Na  Na4  1  0.75000000  0.21696500  0.91614700  1
  Na  Na5  1  0.25000000  0.78303500  0.08385300  1
  Cu  Cu6  1  0.25000000  0.24095700  0.65312500  1
  Cu  Cu7  1  0.75000000  0.75904300  0.34687500  1
  P  P8  1  0.75000000  0.30734800  0.58130500  1
  P  P9  1  0.25000000  0.69265200  0.41869500  1
  C  C10  1  0.25000000  0.29147800  0.94751400  1
  C  C11  1  0.75000000  0.70852200  0.05248600  1
  O  O12  1  0.25000000  0.09620500  0.86398000  1
  O  O13  1  0.75000000  0.90379500  0.13602000  1
  O  O14  1  0.25000000  0.51813000  0.88727600  1
  O  O15  1  0.75000000  0.48187000  0.11272400  1
  O  O16  1  0.25000000  0.24624500  0.08920700  1
  O  O17  1  0.75000000  0.75375500  0.91079300  1
  O  O18  1  0.93864400  0.23921400  0.68296000  1
  O  O19  1  0.43864400  0.76078600  0.31704000  1
  O  O20  1  0.06135600  0.76078600  0.31704000  1
  O  O21  1  0.56135600  0.23921400  0.68296000  1
  O  O22  1  0.75000000  0.16915300  0.43812200  1
  O  O23  1  0.25000000  0.83084700  0.56187800  1
  O  O24  1  0.25000000  0.39708700  0.45248900  1
  O  O25  1  0.75000000  0.60291300  0.54751100  1
