# generated using pymatgen
data_P3W2O13
_symmetry_space_group_name_H-M   'P 1'
_cell_length_a   6.45196000
_cell_length_b   7.54633045
_cell_length_c   11.31834724
_cell_angle_alpha   76.40624666
_cell_angle_beta   86.24410167
_cell_angle_gamma   79.75387166
_symmetry_Int_Tables_number   1
_chemical_formula_structural   P3W2O13
_chemical_formula_sum   'P6 W4 O26'
_cell_volume   526.93350593
_cell_formula_units_Z   2
loop_
 _symmetry_equiv_pos_site_id
 _symmetry_equiv_pos_as_xyz
  1  'x, y, z'
loop_
 _atom_site_type_symbol
 _atom_site_label
 _atom_site_symmetry_multiplicity
 _atom_site_fract_x
 _atom_site_fract_y
 _atom_site_fract_z
 _atom_site_occupancy
  P  P0  1  0.11858900  0.47517400  0.31114900  1
  P  P1  1  0.26142800  0.79832300  0.33473000  1
  P  P2  1  0.26425200  0.93490900  0.89031700  1
  P  P3  1  0.73574800  0.06509100  0.10968300  1
  P  P4  1  0.73857200  0.20167700  0.66527000  1
  P  P5  1  0.88141100  0.52482600  0.68885100  1
  W  W6  1  0.21085900  0.20982400  0.09351100  1
  W  W7  1  0.23813300  0.20047900  0.59354600  1
  W  W8  1  0.76186700  0.79952100  0.40645400  1
  W  W9  1  0.78914100  0.79017600  0.90648900  1
  O  O10  1  0.14183800  0.37738400  0.20299700  1
  O  O11  1  0.08063700  0.78716300  0.42881800  1
  O  O12  1  0.10768500  0.45354100  0.65886700  1
  O  O13  1  0.22253100  0.09923100  0.78414000  1
  O  O14  1  0.09337200  0.80903800  0.90592500  1
  O  O15  1  0.24559900  0.34996200  0.41698600  1
  O  O16  1  0.24039700  0.64744100  0.25565100  1
  O  O17  1  0.21288500  0.37521100  0.95893900  1
  O  O18  1  0.26476700  0.00168300  0.01052100  1
  O  O19  1  0.24221100  0.98665200  0.24678700  1
  O  O20  1  0.30935200  0.97746000  0.57246500  1
  O  O21  1  0.51948100  0.19104300  0.11672700  1
  O  O22  1  0.47344500  0.73184400  0.39423400  1
  O  O23  1  0.52655500  0.26815600  0.60576600  1
  O  O24  1  0.48051900  0.80895700  0.88327300  1
  O  O25  1  0.69064800  0.02254000  0.42753500  1
  O  O26  1  0.75778900  0.01334800  0.75321300  1
  O  O27  1  0.73523300  0.99831700  0.98947900  1
  O  O28  1  0.78711500  0.62478900  0.04106100  1
  O  O29  1  0.75960300  0.35255900  0.74434900  1
  O  O30  1  0.75440100  0.65003800  0.58301400  1
  O  O31  1  0.90662800  0.19096200  0.09407500  1
  O  O32  1  0.77746900  0.90076900  0.21586000  1
  O  O33  1  0.89231500  0.54645900  0.34113300  1
  O  O34  1  0.91936300  0.21283700  0.57118200  1
  O  O35  1  0.85816200  0.62261600  0.79700300  1
