# generated using pymatgen
data_NaMnPCO7
_symmetry_space_group_name_H-M   'P 1'
_cell_length_a   6.25644600
_cell_length_b   5.23075900
_cell_length_c   18.15090423
_cell_angle_alpha   88.00206387
_cell_angle_beta   90.00000000
_cell_angle_gamma   90.00000000
_symmetry_Int_Tables_number   1
_chemical_formula_structural   NaMnPCO7
_chemical_formula_sum   'Na4 Mn4 P4 C4 O28'
_cell_volume   593.64468220
_cell_formula_units_Z   4
loop_
 _symmetry_equiv_pos_site_id
 _symmetry_equiv_pos_as_xyz
  1  'x, y, z'
loop_
 _atom_site_type_symbol
 _atom_site_label
 _atom_site_symmetry_multiplicity
 _atom_site_fract_x
 _atom_site_fract_y
 _atom_site_fract_z
 _atom_site_occupancy
  Na  Na0  1  0.53015100  0.75708000  0.63064300  1
  Na  Na1  1  0.46984900  0.24292000  0.36935700  1
  Na  Na2  1  0.96984900  0.75708000  0.13064300  1
  Na  Na3  1  0.03015100  0.24292000  0.86935700  1
  Mn  Mn4  1  0.24687100  0.21694100  0.57877000  1
  Mn  Mn5  1  0.75312900  0.78305900  0.42123000  1
  Mn  Mn6  1  0.25312900  0.21694100  0.07877000  1
  Mn  Mn7  1  0.74687100  0.78305900  0.92123000  1
  P  P8  1  0.74856900  0.28124200  0.53327100  1
  P  P9  1  0.25143100  0.71875800  0.46672900  1
  P  P10  1  0.75143100  0.28124200  0.03327100  1
  P  P11  1  0.24856900  0.71875800  0.96672900  1
  C  C12  1  0.25652000  0.27051900  0.71098400  1
  C  C13  1  0.74348000  0.72948100  0.28901600  1
  C  C14  1  0.24348000  0.27051900  0.21098400  1
  C  C15  1  0.75652000  0.72948100  0.78901600  1
  O  O16  1  0.76199600  0.69941100  0.72223200  1
  O  O17  1  0.25343000  0.04774300  0.67879700  1
  O  O18  1  0.25238900  0.45997100  0.66014200  1
  O  O19  1  0.94353700  0.21546000  0.58182400  1
  O  O20  1  0.55864400  0.21613400  0.58645700  1
  O  O21  1  0.73936200  0.57187700  0.51195800  1
  O  O22  1  0.26310000  0.87259500  0.53727400  1
  O  O23  1  0.73690000  0.12740500  0.46272600  1
  O  O24  1  0.26063800  0.42812300  0.48804200  1
  O  O25  1  0.44135600  0.78386600  0.41354300  1
  O  O26  1  0.05646300  0.78454000  0.41817600  1
  O  O27  1  0.74761100  0.54002900  0.33985800  1
  O  O28  1  0.74657000  0.95225700  0.32120300  1
  O  O29  1  0.23800400  0.30058900  0.27776800  1
  O  O30  1  0.73800400  0.69941100  0.22223200  1
  O  O31  1  0.24657000  0.04774300  0.17879700  1
  O  O32  1  0.24761100  0.45997100  0.16014200  1
  O  O33  1  0.94135600  0.21613400  0.08645700  1
  O  O34  1  0.55646300  0.21546000  0.08182400  1
  O  O35  1  0.76063800  0.57187700  0.01195800  1
  O  O36  1  0.23690000  0.87259500  0.03727400  1
  O  O37  1  0.76310000  0.12740500  0.96272600  1
  O  O38  1  0.23936200  0.42812300  0.98804200  1
  O  O39  1  0.44353700  0.78454000  0.91817600  1
  O  O40  1  0.05864400  0.78386600  0.91354300  1
  O  O41  1  0.75238900  0.54002900  0.83985800  1
  O  O42  1  0.75343000  0.95225700  0.82120300  1
  O  O43  1  0.26199600  0.30058900  0.77776800  1
