# generated using pymatgen
data_Na2MnPCO7
_symmetry_space_group_name_H-M   'P 1'
_cell_length_a   5.24550200
_cell_length_b   8.98307965
_cell_length_c   13.36057487
_cell_angle_alpha   89.83229178
_cell_angle_beta   89.79391516
_cell_angle_gamma   88.41208691
_symmetry_Int_Tables_number   1
_chemical_formula_structural   Na2MnPCO7
_chemical_formula_sum   'Na8 Mn4 P4 C4 O28'
_cell_volume   629.31212244
_cell_formula_units_Z   4
loop_
 _symmetry_equiv_pos_site_id
 _symmetry_equiv_pos_as_xyz
  1  'x, y, z'
loop_
 _atom_site_type_symbol
 _atom_site_label
 _atom_site_symmetry_multiplicity
 _atom_site_fract_x
 _atom_site_fract_y
 _atom_site_fract_z
 _atom_site_occupancy
  Na  Na0  1  0.75895700  0.74989600  0.23056200  1
  Na  Na1  1  0.75588600  0.76164100  0.50508600  1
  Na  Na2  1  0.76011000  0.75053600  0.74760900  1
  Na  Na3  1  0.24174400  0.23995700  0.25440300  1
  Na  Na4  1  0.23989000  0.23873100  0.49782400  1
  Na  Na5  1  0.24855700  0.24819600  0.74962500  1
  Na  Na6  1  0.24897000  0.25181100  0.99854300  1
  Na  Na7  1  0.77173500  0.06500300  0.88806200  1
  Mn  Mn8  1  0.21603500  0.64848200  0.37450300  1
  Mn  Mn9  1  0.22327000  0.64701900  0.87914500  1
  Mn  Mn10  1  0.78428000  0.35219600  0.12579200  1
  Mn  Mn11  1  0.77244100  0.35594000  0.62557500  1
  P  P12  1  0.28817100  0.57667000  0.12149600  1
  P  P13  1  0.29234600  0.57872200  0.62966900  1
  P  P14  1  0.71375700  0.42519500  0.37743600  1
  P  P15  1  0.70063500  0.42048400  0.87220900  1
  C  C16  1  0.27063200  0.91987000  0.37418700  1
  C  C17  1  0.28017300  0.93439000  0.87137300  1
  C  C18  1  0.72376800  0.07402700  0.62478200  1
  C  C19  1  0.73122900  0.08080400  0.12668000  1
  O  O20  1  0.71214400  0.94463400  0.12577400  1
  O  O21  1  0.73703500  0.93424800  0.62830900  1
  O  O22  1  0.05138800  0.85077500  0.37465000  1
  O  O23  1  0.07195100  0.85533200  0.87460800  1
  O  O24  1  0.49449700  0.86511600  0.86583500  1
  O  O25  1  0.46644100  0.82533100  0.37307100  1
  O  O26  1  0.23487800  0.66515900  0.02471600  1
  O  O27  1  0.21354000  0.67204600  0.21267000  1
  O  O28  1  0.21745700  0.67374800  0.53840800  1
  O  O29  1  0.22682200  0.66620100  0.72702800  1
  O  O30  1  0.57953500  0.53407200  0.12909800  1
  O  O31  1  0.59308700  0.55000100  0.62779800  1
  O  O32  1  0.85024000  0.57715600  0.37575700  1
  O  O33  1  0.84009200  0.56675400  0.86840200  1
  O  O34  1  0.14151500  0.42707700  0.12225600  1
  O  O35  1  0.16325000  0.42562900  0.62822700  1
  O  O36  1  0.41625400  0.45898900  0.37568300  1
  O  O37  1  0.40137500  0.45118700  0.87662900  1
  O  O38  1  0.78984000  0.32837800  0.28754900  1
  O  O39  1  0.77891200  0.33714300  0.47420400  1
  O  O40  1  0.75357400  0.32095200  0.77771500  1
  O  O41  1  0.77372800  0.31828300  0.96171100  1
  O  O42  1  0.53659500  0.17881300  0.12698000  1
  O  O43  1  0.51613400  0.15519000  0.62226300  1
  O  O44  1  0.95223900  0.15014400  0.12434700  1
  O  O45  1  0.93560900  0.15317000  0.62540000  1
  O  O46  1  0.28475500  0.05837100  0.37496100  1
  O  O47  1  0.25453800  0.07808900  0.87534900  1
