# generated using pymatgen
data_Na2FePCO7
_symmetry_space_group_name_H-M   'P 1'
_cell_length_a   6.55367800
_cell_length_b   5.23498000
_cell_length_c   17.93641194
_cell_angle_alpha   89.54164260
_cell_angle_beta   90.00000000
_cell_angle_gamma   90.00000000
_symmetry_Int_Tables_number   1
_chemical_formula_structural   Na2FePCO7
_chemical_formula_sum   'Na8 Fe4 P4 C4 O28'
_cell_volume   615.34942477
_cell_formula_units_Z   4
loop_
 _symmetry_equiv_pos_site_id
 _symmetry_equiv_pos_as_xyz
  1  'x, y, z'
loop_
 _atom_site_type_symbol
 _atom_site_label
 _atom_site_symmetry_multiplicity
 _atom_site_fract_x
 _atom_site_fract_y
 _atom_site_fract_z
 _atom_site_occupancy
  Na  Na0  1  0.27990700  0.76356000  0.04013500  1
  Na  Na1  1  0.01107400  0.25097000  0.13126900  1
  Na  Na2  1  0.51107400  0.74903000  0.36873100  1
  Na  Na3  1  0.77990700  0.23644000  0.45986500  1
  Na  Na4  1  0.22009300  0.76356000  0.54013500  1
  Na  Na5  1  0.48892600  0.25097000  0.63126900  1
  Na  Na6  1  0.98892600  0.74903000  0.86873100  1
  Na  Na7  1  0.72009300  0.23644000  0.95986500  1
  Fe  Fe8  1  0.73440000  0.78427200  0.17283100  1
  Fe  Fe9  1  0.23440000  0.21572800  0.32716900  1
  Fe  Fe10  1  0.76560000  0.78427200  0.67283100  1
  Fe  Fe11  1  0.26560000  0.21572800  0.82716900  1
  P  P12  1  0.24507800  0.70972500  0.21230500  1
  P  P13  1  0.74507800  0.29027500  0.28769500  1
  P  P14  1  0.25492200  0.70972500  0.71230500  1
  P  P15  1  0.75492200  0.29027500  0.78769500  1
  C  C16  1  0.76405700  0.72990000  0.03286600  1
  C  C17  1  0.26405700  0.27010000  0.46713400  1
  C  C18  1  0.73594300  0.72990000  0.53286600  1
  C  C19  1  0.23594300  0.27010000  0.96713400  1
  O  O20  1  0.23358400  0.29833600  0.03757000  1
  O  O21  1  0.75988800  0.95647600  0.06399900  1
  O  O22  1  0.75829700  0.53595100  0.07947500  1
  O  O23  1  0.05691300  0.77448800  0.16310300  1
  O  O24  1  0.43307300  0.76023800  0.16148000  1
  O  O25  1  0.75643300  0.12898600  0.21598700  1
  O  O26  1  0.23517900  0.42205100  0.23508100  1
  O  O27  1  0.73517900  0.57794900  0.26491900  1
  O  O28  1  0.25643300  0.87101400  0.28401300  1
  O  O29  1  0.55691300  0.22551200  0.33689700  1
  O  O30  1  0.93307300  0.23976200  0.33852000  1
  O  O31  1  0.25829700  0.46404900  0.42052500  1
  O  O32  1  0.25988800  0.04352400  0.43600100  1
  O  O33  1  0.73358400  0.70166400  0.46243000  1
  O  O34  1  0.26641600  0.29833600  0.53757000  1
  O  O35  1  0.74011200  0.95647600  0.56399900  1
  O  O36  1  0.74170300  0.53595100  0.57947500  1
  O  O37  1  0.06692700  0.76023800  0.66148000  1
  O  O38  1  0.44308700  0.77448800  0.66310300  1
  O  O39  1  0.74356700  0.12898600  0.71598700  1
  O  O40  1  0.26482100  0.42205100  0.73508100  1
  O  O41  1  0.76482100  0.57794900  0.76491900  1
  O  O42  1  0.24356700  0.87101400  0.78401300  1
  O  O43  1  0.56692700  0.23976200  0.83852000  1
  O  O44  1  0.94308700  0.22551200  0.83689700  1
  O  O45  1  0.24170300  0.46404900  0.92052500  1
  O  O46  1  0.24011200  0.04352400  0.93600100  1
  O  O47  1  0.76641600  0.70166400  0.96243000  1
