# generated using pymatgen
data_NaMnPCO7
_symmetry_space_group_name_H-M   'P 1'
_cell_length_a   6.23193500
_cell_length_b   9.20408200
_cell_length_c   10.50031597
_cell_angle_alpha   87.37097741
_cell_angle_beta   90.00000000
_cell_angle_gamma   90.00000000
_symmetry_Int_Tables_number   1
_chemical_formula_structural   NaMnPCO7
_chemical_formula_sum   'Na4 Mn4 P4 C4 O28'
_cell_volume   601.65621916
_cell_formula_units_Z   4
loop_
 _symmetry_equiv_pos_site_id
 _symmetry_equiv_pos_as_xyz
  1  'x, y, z'
loop_
 _atom_site_type_symbol
 _atom_site_label
 _atom_site_symmetry_multiplicity
 _atom_site_fract_x
 _atom_site_fract_y
 _atom_site_fract_z
 _atom_site_occupancy
  Na  Na0  1  0.46155700  0.23768200  0.62145700  1
  Na  Na1  1  0.03844300  0.23768200  0.12145700  1
  Na  Na2  1  0.96155700  0.76231800  0.87854300  1
  Na  Na3  1  0.53844300  0.76231800  0.37854300  1
  Mn  Mn4  1  0.74604900  0.34452200  0.89164000  1
  Mn  Mn5  1  0.75395100  0.34452200  0.39164000  1
  Mn  Mn6  1  0.24604900  0.65547800  0.60836000  1
  Mn  Mn7  1  0.25395100  0.65547800  0.10836000  1
  P  P8  1  0.24849800  0.43507600  0.86167500  1
  P  P9  1  0.25150200  0.43507600  0.36167500  1
  P  P10  1  0.74849800  0.56492400  0.63832500  1
  P  P11  1  0.75150200  0.56492400  0.13832500  1
  C  C12  1  0.74625600  0.08454700  0.86389700  1
  C  C13  1  0.75374400  0.08454700  0.36389700  1
  C  C14  1  0.24625600  0.91545300  0.63610300  1
  C  C15  1  0.25374400  0.91545300  0.13610300  1
  O  O16  1  0.24257300  0.04715300  0.65230600  1
  O  O17  1  0.25742700  0.04715300  0.15230600  1
  O  O18  1  0.75546700  0.14560800  0.97489900  1
  O  O19  1  0.74453300  0.14560800  0.47489900  1
  O  O20  1  0.74039500  0.18668500  0.77013400  1
  O  O21  1  0.75960500  0.18668500  0.27013400  1
  O  O22  1  0.05532200  0.33483700  0.89810400  1
  O  O23  1  0.44095800  0.33291400  0.89132300  1
  O  O24  1  0.05904200  0.33291400  0.39132300  1
  O  O25  1  0.44467800  0.33483700  0.39810400  1
  O  O26  1  0.24876600  0.47745100  0.71661300  1
  O  O27  1  0.74700800  0.42611300  0.56273200  1
  O  O28  1  0.25123400  0.47745100  0.21661300  1
  O  O29  1  0.75299200  0.42611300  0.06273200  1
  O  O30  1  0.24700800  0.57388700  0.93726800  1
  O  O31  1  0.74876600  0.52254900  0.78338700  1
  O  O32  1  0.25299200  0.57388700  0.43726800  1
  O  O33  1  0.75123400  0.52254900  0.28338700  1
  O  O34  1  0.55532200  0.66516300  0.60189600  1
  O  O35  1  0.94095800  0.66708600  0.60867700  1
  O  O36  1  0.55904200  0.66708600  0.10867700  1
  O  O37  1  0.94467800  0.66516300  0.10189600  1
  O  O38  1  0.24039500  0.81331500  0.72986600  1
  O  O39  1  0.25960500  0.81331500  0.22986600  1
  O  O40  1  0.25546700  0.85439200  0.52510100  1
  O  O41  1  0.24453300  0.85439200  0.02510100  1
  O  O42  1  0.74257300  0.95284700  0.84769400  1
  O  O43  1  0.75742700  0.95284700  0.34769400  1
