# generated using pymatgen
data_Mn2Si4O11
_symmetry_space_group_name_H-M   'P 1'
_cell_length_a   7.15455200
_cell_length_b   7.59371084
_cell_length_c   8.45744615
_cell_angle_alpha   96.99710941
_cell_angle_beta   103.26952349
_cell_angle_gamma   109.68370055
_symmetry_Int_Tables_number   1
_chemical_formula_structural   Mn2Si4O11
_chemical_formula_sum   'Mn4 Si8 O22'
_cell_volume   411.02782872
_cell_formula_units_Z   2
loop_
 _symmetry_equiv_pos_site_id
 _symmetry_equiv_pos_as_xyz
  1  'x, y, z'
loop_
 _atom_site_type_symbol
 _atom_site_label
 _atom_site_symmetry_multiplicity
 _atom_site_fract_x
 _atom_site_fract_y
 _atom_site_fract_z
 _atom_site_occupancy
  Mn  Mn0  1  0.13594300  0.36965800  0.61122600  1
  Mn  Mn1  1  0.63978300  0.37495100  0.61067100  1
  Mn  Mn2  1  0.36021700  0.62504900  0.38932900  1
  Mn  Mn3  1  0.86405700  0.63034200  0.38877400  1
  Si  Si4  1  0.76596400  0.61885100  0.97549100  1
  Si  Si5  1  0.04836900  0.79052100  0.77962300  1
  Si  Si6  1  0.48011100  0.78606000  0.78508100  1
  Si  Si7  1  0.22295100  0.01904300  0.39484500  1
  Si  Si8  1  0.77704900  0.98095700  0.60515500  1
  Si  Si9  1  0.51988900  0.21394000  0.21491900  1
  Si  Si10  1  0.95163100  0.20947900  0.22037700  1
  Si  Si11  1  0.23403600  0.38114900  0.02450900  1
  O  O12  1  0.19585500  0.42176700  0.84011000  1
  O  O13  1  0.61080500  0.73859500  0.94512300  1
  O  O14  1  0.67605500  0.41888000  0.83656200  1
  O  O15  1  0.98284700  0.75917700  0.94710700  1
  O  O16  1  0.29368100  0.84116800  0.82184600  1
  O  O17  1  0.62046500  0.96600700  0.72133500  1
  O  O18  1  0.39325500  0.59753000  0.62504100  1
  O  O19  1  0.34132200  0.20410900  0.55450100  1
  O  O20  1  0.84469200  0.19721700  0.56766800  1
  O  O21  1  0.99335100  0.96282000  0.70646100  1
  O  O22  1  0.91337000  0.59405900  0.62572900  1
  O  O23  1  0.08663000  0.40594100  0.37427100  1
  O  O24  1  0.00664900  0.03718000  0.29353900  1
  O  O25  1  0.15530800  0.80278300  0.43233200  1
  O  O26  1  0.65867800  0.79589100  0.44549900  1
  O  O27  1  0.60674500  0.40247000  0.37495900  1
  O  O28  1  0.37953500  0.03399300  0.27866500  1
  O  O29  1  0.70631900  0.15883200  0.17815400  1
  O  O30  1  0.01715300  0.24082300  0.05289300  1
  O  O31  1  0.32394500  0.58112000  0.16343800  1
  O  O32  1  0.38919500  0.26140500  0.05487700  1
  O  O33  1  0.80414500  0.57823300  0.15989000  1
