# generated using pymatgen
data_Na2MnPCO7
_symmetry_space_group_name_H-M   'P 1'
_cell_length_a   8.46700100
_cell_length_b   8.55763605
_cell_length_c   10.17536815
_cell_angle_alpha   107.77455363
_cell_angle_beta   106.65094738
_cell_angle_gamma   105.05854986
_symmetry_Int_Tables_number   1
_chemical_formula_structural   Na2MnPCO7
_chemical_formula_sum   'Na8 Mn4 P4 C4 O28'
_cell_volume   622.01087981
_cell_formula_units_Z   4
loop_
 _symmetry_equiv_pos_site_id
 _symmetry_equiv_pos_as_xyz
  1  'x, y, z'
loop_
 _atom_site_type_symbol
 _atom_site_label
 _atom_site_symmetry_multiplicity
 _atom_site_fract_x
 _atom_site_fract_y
 _atom_site_fract_z
 _atom_site_occupancy
  Na  Na0  1  0.76268000  0.75558400  0.75970500  1
  Na  Na1  1  0.25571800  0.23907000  0.74208100  1
  Na  Na2  1  0.98566000  0.50452000  0.74253600  1
  Na  Na3  1  0.50591000  0.01277200  0.76228400  1
  Na  Na4  1  0.51536800  0.00883900  0.24892100  1
  Na  Na5  1  0.75206200  0.75135300  0.24510300  1
  Na  Na6  1  0.22805400  0.24750700  0.25158000  1
  Na  Na7  1  0.28768000  0.54998900  0.08535800  1
  Mn  Mn8  1  0.81103300  0.06013900  0.64874800  1
  Mn  Mn9  1  0.30626400  0.55764400  0.64514600  1
  Mn  Mn10  1  0.70124000  0.44146100  0.34685500  1
  Mn  Mn11  1  0.19215600  0.93567300  0.35003300  1
  P  P12  1  0.05944200  0.80878400  0.57947400  1
  P  P13  1  0.55981600  0.31134400  0.57697500  1
  P  P14  1  0.44171400  0.68993500  0.42166800  1
  P  P15  1  0.93579300  0.18329900  0.41864900  1
  C  C16  1  0.98008400  0.22835200  0.92840200  1
  C  C17  1  0.47108700  0.72150500  0.92861500  1
  C  C18  1  0.52412200  0.27950900  0.07229700  1
  C  C19  1  0.02715500  0.77690100  0.07207600  1
  O  O20  1  0.95742200  0.70441200  0.93108400  1
  O  O21  1  0.44266600  0.20345500  0.93209100  1
  O  O22  1  0.32232800  0.57533900  0.85015200  1
  O  O23  1  0.83092600  0.08449200  0.85445500  1
  O  O24  1  0.03534000  0.28883600  0.83842500  1
  O  O25  1  0.53521000  0.78550300  0.84717300  1
  O  O26  1  0.16220500  0.72318100  0.66842300  1
  O  O27  1  0.98368100  0.91824500  0.67729300  1
  O  O28  1  0.66384800  0.22979800  0.66914800  1
  O  O29  1  0.47442500  0.41464400  0.66959300  1
  O  O30  1  0.58667000  0.83371300  0.57599800  1
  O  O31  1  0.69436300  0.44664500  0.54487600  1
  O  O32  1  0.19616600  0.94177200  0.54675500  1
  O  O33  1  0.07727800  0.33057300  0.57276900  1
  O  O34  1  0.91016200  0.66930100  0.42739600  1
  O  O35  1  0.31128500  0.55515700  0.45650500  1
  O  O36  1  0.80569300  0.04379300  0.45337100  1
  O  O37  1  0.41527500  0.16529600  0.42390600  1
  O  O38  1  0.34075500  0.77214100  0.32804500  1
  O  O39  1  0.51643000  0.58372200  0.32089900  1
  O  O40  1  0.81842200  0.25196300  0.32590000  1
  O  O41  1  0.02324300  0.08290600  0.32889000  1
  O  O42  1  0.47400900  0.22663800  0.16737000  1
  O  O43  1  0.96766500  0.72390400  0.16088300  1
  O  O44  1  0.66963500  0.42442300  0.14036700  1
  O  O45  1  0.17958100  0.91927400  0.14684000  1
  O  O46  1  0.06060100  0.29860400  0.06772800  1
  O  O47  1  0.53368400  0.78219800  0.07043400  1
