# generated using pymatgen
data_Na2FePCO7
_symmetry_space_group_name_H-M   'P 1'
_cell_length_a   6.53492300
_cell_length_b   8.95327000
_cell_length_c   10.47406207
_cell_angle_alpha   89.75332361
_cell_angle_beta   90.00000000
_cell_angle_gamma   90.00000000
_symmetry_Int_Tables_number   1
_chemical_formula_structural   Na2FePCO7
_chemical_formula_sum   'Na8 Fe4 P4 C4 O28'
_cell_volume   612.82048551
_cell_formula_units_Z   4
loop_
 _symmetry_equiv_pos_site_id
 _symmetry_equiv_pos_as_xyz
  1  'x, y, z'
loop_
 _atom_site_type_symbol
 _atom_site_label
 _atom_site_symmetry_multiplicity
 _atom_site_fract_x
 _atom_site_fract_y
 _atom_site_fract_z
 _atom_site_occupancy
  Na  Na0  1  0.75974900  0.91969200  0.61751600  1
  Na  Na1  1  0.74025100  0.91969200  0.11751600  1
  Na  Na2  1  0.98722400  0.73687900  0.87419700  1
  Na  Na3  1  0.51277600  0.73687900  0.37419700  1
  Na  Na4  1  0.48722400  0.26312100  0.62580300  1
  Na  Na5  1  0.01277600  0.26312100  0.12580300  1
  Na  Na6  1  0.25974900  0.08030800  0.88248400  1
  Na  Na7  1  0.24025100  0.08030800  0.38248400  1
  Fe  Fe8  1  0.24448500  0.65358100  0.60757500  1
  Fe  Fe9  1  0.25551500  0.65358100  0.10757500  1
  Fe  Fe10  1  0.74448500  0.34641900  0.89242500  1
  Fe  Fe11  1  0.75551500  0.34641900  0.39242500  1
  P  P12  1  0.74805000  0.57621200  0.64580900  1
  P  P13  1  0.75195000  0.57621200  0.14580900  1
  P  P14  1  0.24805000  0.42378800  0.85419100  1
  P  P15  1  0.25195000  0.42378800  0.35419100  1
  C  C16  1  0.25551100  0.93541100  0.63519800  1
  C  C17  1  0.24448900  0.93541100  0.13519800  1
  C  C18  1  0.75551100  0.06458900  0.86480200  1
  C  C19  1  0.74448900  0.06458900  0.36480200  1
  O  O20  1  0.76202600  0.92356700  0.85132500  1
  O  O21  1  0.73797400  0.92356700  0.35132500  1
  O  O22  1  0.26513200  0.87157600  0.52242700  1
  O  O23  1  0.23486800  0.87157600  0.02242700  1
  O  O24  1  0.23732600  0.84335600  0.73199300  1
  O  O25  1  0.26267400  0.84335600  0.23199300  1
  O  O26  1  0.93808500  0.67639900  0.62125400  1
  O  O27  1  0.56120200  0.67585400  0.61099700  1
  O  O28  1  0.93879800  0.67585400  0.11099700  1
  O  O29  1  0.56191500  0.67639900  0.12125400  1
  O  O30  1  0.24689300  0.56866300  0.93399600  1
  O  O31  1  0.25310700  0.56866300  0.43399600  1
  O  O32  1  0.74890900  0.53190300  0.78991700  1
  O  O33  1  0.75109100  0.53190300  0.28991700  1
  O  O34  1  0.24890900  0.46809700  0.71008300  1
  O  O35  1  0.25109100  0.46809700  0.21008300  1
  O  O36  1  0.74689300  0.43133700  0.56600400  1
  O  O37  1  0.75310700  0.43133700  0.06600400  1
  O  O38  1  0.43808500  0.32360100  0.87874600  1
  O  O39  1  0.06120200  0.32414600  0.88900300  1
  O  O40  1  0.43879800  0.32414600  0.38900300  1
  O  O41  1  0.06191500  0.32360100  0.37874600  1
  O  O42  1  0.73732600  0.15664400  0.76800700  1
  O  O43  1  0.76267400  0.15664400  0.26800700  1
  O  O44  1  0.76513200  0.12842400  0.97757300  1
  O  O45  1  0.73486800  0.12842400  0.47757300  1
  O  O46  1  0.26202600  0.07643300  0.64867500  1
  O  O47  1  0.23797400  0.07643300  0.14867500  1
