# generated using pymatgen
data_Na3GePCO7
_symmetry_space_group_name_H-M   'P 1'
_cell_length_a   7.06796200
_cell_length_b   5.15306200
_cell_length_c   9.24403705
_cell_angle_alpha   88.84626957
_cell_angle_beta   90.00000000
_cell_angle_gamma   90.00000000
_symmetry_Int_Tables_number   1
_chemical_formula_structural   Na3GePCO7
_chemical_formula_sum   'Na6 Ge2 P2 C2 O14'
_cell_volume   336.61479275
_cell_formula_units_Z   2
loop_
 _symmetry_equiv_pos_site_id
 _symmetry_equiv_pos_as_xyz
  1  'x, y, z'
loop_
 _atom_site_type_symbol
 _atom_site_label
 _atom_site_symmetry_multiplicity
 _atom_site_fract_x
 _atom_site_fract_y
 _atom_site_fract_z
 _atom_site_occupancy
  Na  Na0  1  0.25000000  0.76649800  0.91602500  1
  Na  Na1  1  0.00140700  0.25018600  0.74317200  1
  Na  Na2  1  0.49859300  0.25018600  0.74317200  1
  Na  Na3  1  0.50140700  0.74981400  0.25682800  1
  Na  Na4  1  0.99859300  0.74981400  0.25682800  1
  Na  Na5  1  0.75000000  0.23350200  0.08397500  1
  Ge  Ge6  1  0.75000000  0.77884400  0.63672900  1
  Ge  Ge7  1  0.25000000  0.22115600  0.36327100  1
  P  P8  1  0.25000000  0.70798100  0.59621700  1
  P  P9  1  0.75000000  0.29201900  0.40378300  1
  C  C10  1  0.75000000  0.72999300  0.94501200  1
  C  C11  1  0.25000000  0.27000700  0.05498800  1
  O  O12  1  0.25000000  0.27281400  0.91544300  1
  O  O13  1  0.75000000  0.95413300  0.87363100  1
  O  O14  1  0.75000000  0.51452400  0.87449600  1
  O  O15  1  0.07376700  0.80292900  0.68137400  1
  O  O16  1  0.42623300  0.80292900  0.68137400  1
  O  O17  1  0.25000000  0.40583100  0.59261300  1
  O  O18  1  0.75000000  0.18519900  0.56503100  1
  O  O19  1  0.25000000  0.81480100  0.43496900  1
  O  O20  1  0.75000000  0.59416900  0.40738700  1
  O  O21  1  0.57376700  0.19707100  0.31862600  1
  O  O22  1  0.92623300  0.19707100  0.31862600  1
  O  O23  1  0.25000000  0.48547600  0.12550400  1
  O  O24  1  0.25000000  0.04586700  0.12636900  1
  O  O25  1  0.75000000  0.72718600  0.08455700  1
