# generated using pymatgen
data_Dy(ClO4)3
_symmetry_space_group_name_H-M   'P 1'
_cell_length_a   9.28714209
_cell_length_b   9.28714209
_cell_length_c   5.73330500
_cell_angle_alpha   90.00000000
_cell_angle_beta   90.00000000
_cell_angle_gamma   120.00000061
_symmetry_Int_Tables_number   1
_chemical_formula_structural   Dy(ClO4)3
_chemical_formula_sum   'Dy2 Cl6 O24'
_cell_volume   428.25244872
_cell_formula_units_Z   2
loop_
 _symmetry_equiv_pos_site_id
 _symmetry_equiv_pos_as_xyz
  1  'x, y, z'
loop_
 _atom_site_type_symbol
 _atom_site_label
 _atom_site_symmetry_multiplicity
 _atom_site_fract_x
 _atom_site_fract_y
 _atom_site_fract_z
 _atom_site_occupancy
  Dy  Dy0  1  0.33333300  0.66666700  0.75000000  1
  Dy  Dy1  1  0.66666700  0.33333300  0.25000000  1
  Cl  Cl2  1  0.09066200  0.70821300  0.25000000  1
  Cl  Cl3  1  0.29178700  0.38244900  0.25000000  1
  Cl  Cl4  1  0.61755100  0.90933800  0.25000000  1
  Cl  Cl5  1  0.38244900  0.09066200  0.75000000  1
  Cl  Cl6  1  0.70821300  0.61755100  0.75000000  1
  Cl  Cl7  1  0.90933800  0.29178700  0.75000000  1
  O  O8  1  0.01993700  0.81241000  0.25000000  1
  O  O9  1  0.03454800  0.46967800  0.75000000  1
  O  O10  1  0.19720600  0.74197300  0.04371300  1
  O  O11  1  0.19720600  0.74197300  0.45628700  1
  O  O12  1  0.43513000  0.96545200  0.75000000  1
  O  O13  1  0.25802700  0.45523300  0.45628700  1
  O  O14  1  0.25802700  0.45523300  0.04371300  1
  O  O15  1  0.18759000  0.20752800  0.25000000  1
  O  O16  1  0.54476700  0.80279400  0.04371300  1
  O  O17  1  0.54476700  0.80279400  0.45628700  1
  O  O18  1  0.20752800  0.01993700  0.75000000  1
  O  O19  1  0.46967800  0.43513000  0.25000000  1
  O  O20  1  0.53032200  0.56487000  0.75000000  1
  O  O21  1  0.79247200  0.98006300  0.25000000  1
  O  O22  1  0.45523300  0.19720600  0.54371300  1
  O  O23  1  0.45523300  0.19720600  0.95628700  1
  O  O24  1  0.81241000  0.79247200  0.75000000  1
  O  O25  1  0.74197300  0.54476700  0.54371300  1
  O  O26  1  0.74197300  0.54476700  0.95628700  1
  O  O27  1  0.56487000  0.03454800  0.25000000  1
  O  O28  1  0.80279400  0.25802700  0.95628700  1
  O  O29  1  0.80279400  0.25802700  0.54371300  1
  O  O30  1  0.96545200  0.53032200  0.25000000  1
  O  O31  1  0.98006300  0.18759000  0.75000000  1
