# generated using pymatgen
data_Sr2HfO4
_symmetry_space_group_name_H-M   'P 1'
_cell_length_a   7.04503557
_cell_length_b   7.04503557
_cell_length_c   7.04503557
_cell_angle_alpha   146.03241834
_cell_angle_beta   146.03241834
_cell_angle_gamma   48.79861333
_symmetry_Int_Tables_number   1
_chemical_formula_structural   Sr2HfO4
_chemical_formula_sum   'Sr2 Hf1 O4'
_cell_volume   108.67909855
_cell_formula_units_Z   1
loop_
 _symmetry_equiv_pos_site_id
 _symmetry_equiv_pos_as_xyz
  1  'x, y, z'
loop_
 _atom_site_type_symbol
 _atom_site_label
 _atom_site_symmetry_multiplicity
 _atom_site_fract_x
 _atom_site_fract_y
 _atom_site_fract_z
 _atom_site_occupancy
  Sr  Sr0  1  0.64773300  0.64773300  0.00000000  1
  Sr  Sr1  1  0.35226700  0.35226700  0.00000000  1
  Hf  Hf2  1  0.00000000  0.00000000  0.00000000  1
  O  O3  1  0.50000000  0.00000000  0.50000000  1
  O  O4  1  0.00000000  0.50000000  0.50000000  1
  O  O5  1  0.83608000  0.83608000  0.00000000  1
  O  O6  1  0.16392000  0.16392000  0.00000000  1
