# generated using pymatgen
data_Cs3NO4
_symmetry_space_group_name_H-M   'P 1'
_cell_length_a   6.31910500
_cell_length_b   8.91961600
_cell_length_c   12.16956100
_cell_angle_alpha   90.00000000
_cell_angle_beta   90.00000000
_cell_angle_gamma   90.00000000
_symmetry_Int_Tables_number   1
_chemical_formula_structural   Cs3NO4
_chemical_formula_sum   'Cs12 N4 O16'
_cell_volume   685.92501528
_cell_formula_units_Z   4
loop_
 _symmetry_equiv_pos_site_id
 _symmetry_equiv_pos_as_xyz
  1  'x, y, z'
loop_
 _atom_site_type_symbol
 _atom_site_label
 _atom_site_symmetry_multiplicity
 _atom_site_fract_x
 _atom_site_fract_y
 _atom_site_fract_z
 _atom_site_occupancy
  Cs  Cs0  1  0.36768700  0.25000000  0.07217300  1
  Cs  Cs1  1  0.82772900  0.00866200  0.14570000  1
  Cs  Cs2  1  0.82772900  0.49133800  0.14570000  1
  Cs  Cs3  1  0.32772900  0.50866200  0.35430000  1
  Cs  Cs4  1  0.32772900  0.99133800  0.35430000  1
  Cs  Cs5  1  0.86768700  0.75000000  0.42782700  1
  Cs  Cs6  1  0.13231300  0.25000000  0.57217300  1
  Cs  Cs7  1  0.67227100  0.00866200  0.64570000  1
  Cs  Cs8  1  0.67227100  0.49133800  0.64570000  1
  Cs  Cs9  1  0.17227100  0.50866200  0.85430000  1
  Cs  Cs10  1  0.17227100  0.99133800  0.85430000  1
  Cs  Cs11  1  0.63231300  0.75000000  0.92782700  1
  N  N12  1  0.21690900  0.75000000  0.11543700  1
  N  N13  1  0.71690900  0.25000000  0.38456300  1
  N  N14  1  0.28309100  0.75000000  0.61543700  1
  N  N15  1  0.78309100  0.25000000  0.88456300  1
  O  O16  1  0.06947500  0.75000000  0.02810800  1
  O  O17  1  0.34269500  0.62041500  0.10870500  1
  O  O18  1  0.34269500  0.87958500  0.10870500  1
  O  O19  1  0.10529100  0.75000000  0.21590700  1
  O  O20  1  0.60529100  0.25000000  0.28409300  1
  O  O21  1  0.84269500  0.12041500  0.39129500  1
  O  O22  1  0.84269500  0.37958500  0.39129500  1
  O  O23  1  0.56947500  0.25000000  0.47189200  1
  O  O24  1  0.43052500  0.75000000  0.52810800  1
  O  O25  1  0.15730500  0.62041500  0.60870500  1
  O  O26  1  0.15730500  0.87958500  0.60870500  1
  O  O27  1  0.39470900  0.75000000  0.71590700  1
  O  O28  1  0.89470900  0.25000000  0.78409300  1
  O  O29  1  0.65730500  0.12041500  0.89129500  1
  O  O30  1  0.65730500  0.37958500  0.89129500  1
  O  O31  1  0.93052500  0.25000000  0.97189200  1
