# generated using pymatgen
data_Ba2B2O5
_symmetry_space_group_name_H-M   'P 1'
_cell_length_a   4.24823300
_cell_length_b   11.02514400
_cell_length_c   13.44142602
_cell_angle_alpha   74.10129673
_cell_angle_beta   90.00000000
_cell_angle_gamma   90.00000000
_symmetry_Int_Tables_number   1
_chemical_formula_structural   Ba2B2O5
_chemical_formula_sum   'Ba8 B8 O20'
_cell_volume   605.47890268
_cell_formula_units_Z   4
loop_
 _symmetry_equiv_pos_site_id
 _symmetry_equiv_pos_as_xyz
  1  'x, y, z'
loop_
 _atom_site_type_symbol
 _atom_site_label
 _atom_site_symmetry_multiplicity
 _atom_site_fract_x
 _atom_site_fract_y
 _atom_site_fract_z
 _atom_site_occupancy
  Ba  Ba0  1  0.72150000  0.58403800  0.08725500  1
  Ba  Ba1  1  0.26340200  0.89523200  0.13990800  1
  Ba  Ba2  1  0.76340200  0.10476800  0.36009200  1
  Ba  Ba3  1  0.22150000  0.41596200  0.41274500  1
  Ba  Ba4  1  0.77850000  0.58403800  0.58725500  1
  Ba  Ba5  1  0.23659800  0.89523200  0.63990800  1
  Ba  Ba6  1  0.73659800  0.10476800  0.86009200  1
  Ba  Ba7  1  0.27850000  0.41596200  0.91274500  1
  B  B8  1  0.84262500  0.17429200  0.07572300  1
  B  B9  1  0.17730400  0.30437700  0.18311700  1
  B  B10  1  0.67730400  0.69562300  0.31688300  1
  B  B11  1  0.34262500  0.82570800  0.42427700  1
  B  B12  1  0.65737500  0.17429200  0.57572300  1
  B  B13  1  0.32269600  0.30437700  0.68311700  1
  B  B14  1  0.82269600  0.69562300  0.81688300  1
  B  B15  1  0.15737500  0.82570800  0.92427700  1
  O  O16  1  0.21933600  0.73423400  0.01421700  1
  O  O17  1  0.21022600  0.41886900  0.11157200  1
  O  O18  1  0.01269800  0.20071600  0.15998800  1
  O  O19  1  0.76187600  0.05019600  0.09046400  1
  O  O20  1  0.78261000  0.72329600  0.21674300  1
  O  O21  1  0.28261000  0.27670400  0.28325700  1
  O  O22  1  0.51269800  0.79928400  0.34001200  1
  O  O23  1  0.71022600  0.58113100  0.38842800  1
  O  O24  1  0.71933600  0.26576600  0.48578300  1
  O  O25  1  0.26187600  0.94980400  0.40953600  1
  O  O26  1  0.28066400  0.73423400  0.51421700  1
  O  O27  1  0.28977400  0.41886900  0.61157200  1
  O  O28  1  0.48730200  0.20071600  0.65998800  1
  O  O29  1  0.73812400  0.05019600  0.59046400  1
  O  O30  1  0.71739000  0.72329600  0.71674300  1
  O  O31  1  0.21739000  0.27670400  0.78325700  1
  O  O32  1  0.98730200  0.79928400  0.84001200  1
  O  O33  1  0.78977400  0.58113100  0.88842800  1
  O  O34  1  0.78066400  0.26576600  0.98578300  1
  O  O35  1  0.23812400  0.94980400  0.90953600  1
