# generated using pymatgen
data_BaYF5
_symmetry_space_group_name_H-M   'P 1'
_cell_length_a   7.54742000
_cell_length_b   8.76350828
_cell_length_c   11.01930688
_cell_angle_alpha   77.93553151
_cell_angle_beta   75.49964072
_cell_angle_gamma   68.94619561
_symmetry_Int_Tables_number   1
_chemical_formula_structural   BaYF5
_chemical_formula_sum   'Ba6 Y6 F30'
_cell_volume   652.77384495
_cell_formula_units_Z   6
loop_
 _symmetry_equiv_pos_site_id
 _symmetry_equiv_pos_as_xyz
  1  'x, y, z'
loop_
 _atom_site_type_symbol
 _atom_site_label
 _atom_site_symmetry_multiplicity
 _atom_site_fract_x
 _atom_site_fract_y
 _atom_site_fract_z
 _atom_site_occupancy
  Ba  Ba0  1  0.22488300  0.20216300  0.56008100  1
  Ba  Ba1  1  0.29118300  0.49526500  0.22281900  1
  Ba  Ba2  1  0.74030100  0.13846700  0.07009900  1
  Ba  Ba3  1  0.25969900  0.86153300  0.92990100  1
  Ba  Ba4  1  0.70881700  0.50473500  0.77718100  1
  Ba  Ba5  1  0.77511700  0.79783700  0.43991900  1
  Y  Y6  1  0.22839200  0.34550900  0.91610400  1
  Y  Y7  1  0.25727900  0.66449100  0.57297200  1
  Y  Y8  1  0.28355400  0.97869200  0.25886800  1
  Y  Y9  1  0.71644600  0.02130800  0.74113200  1
  Y  Y10  1  0.74272100  0.33550900  0.42702800  1
  Y  Y11  1  0.77160800  0.65449100  0.08389600  1
  F  F12  1  0.01117600  0.11553900  0.38647500  1
  F  F13  1  0.03508200  0.41634300  0.10955300  1
  F  F14  1  0.35852400  0.14171200  0.06865500  1
  F  F15  1  0.35189000  0.18001100  0.31078600  1
  F  F16  1  0.00212700  0.26102400  0.88442100  1
  F  F17  1  0.01075800  0.56134900  0.59993900  1
  F  F18  1  0.06886800  0.01453500  0.14224600  1
  F  F19  1  0.16427700  0.75739100  0.37092900  1
  F  F20  1  0.37486400  0.10896700  0.78563800  1
  F  F21  1  0.39553100  0.43785000  0.45644600  1
  F  F22  1  0.41814000  0.75898100  0.13890100  1
  F  F23  1  0.31997600  0.43490500  0.71407300  1
  F  F24  1  0.65865200  0.47462100  0.03914000  1
  F  F25  1  0.67665600  0.25695700  0.27492200  1
  F  F26  1  0.62557500  0.11670900  0.54022000  1
  F  F27  1  0.37442500  0.88329100  0.45978000  1
  F  F28  1  0.32334400  0.74304300  0.72507800  1
  F  F29  1  0.34134800  0.52537900  0.96086000  1
  F  F30  1  0.68002400  0.56509500  0.28592700  1
  F  F31  1  0.58186000  0.24101900  0.86109900  1
  F  F32  1  0.60446900  0.56215000  0.54355400  1
  F  F33  1  0.62513600  0.89103300  0.21436200  1
  F  F34  1  0.83572300  0.24260900  0.62907100  1
  F  F35  1  0.93113200  0.98546500  0.85775400  1
  F  F36  1  0.98924200  0.43865100  0.40006100  1
  F  F37  1  0.99787300  0.73897600  0.11557900  1
  F  F38  1  0.64811000  0.81998900  0.68921400  1
  F  F39  1  0.64147600  0.85828800  0.93134500  1
  F  F40  1  0.96491800  0.58365700  0.89044700  1
  F  F41  1  0.98882400  0.88446100  0.61352500  1
