# generated using pymatgen
data_SbBrO
_symmetry_space_group_name_H-M   'P 1'
_cell_length_a   11.63302400
_cell_length_b   8.45548200
_cell_length_c   9.75269264
_cell_angle_alpha   77.61731502
_cell_angle_beta   90.00000000
_cell_angle_gamma   90.00000000
_symmetry_Int_Tables_number   1
_chemical_formula_structural   SbBrO
_chemical_formula_sum   'Sb12 Br12 O12'
_cell_volume   936.98627091
_cell_formula_units_Z   12
loop_
 _symmetry_equiv_pos_site_id
 _symmetry_equiv_pos_as_xyz
  1  'x, y, z'
loop_
 _atom_site_type_symbol
 _atom_site_label
 _atom_site_symmetry_multiplicity
 _atom_site_fract_x
 _atom_site_fract_y
 _atom_site_fract_z
 _atom_site_occupancy
  Sb  Sb0  1  0.53137000  0.29229600  0.06529000  1
  Sb  Sb1  1  0.24796300  0.89214100  0.10924100  1
  Sb  Sb2  1  0.17358300  0.47593600  0.24146200  1
  Sb  Sb3  1  0.67358300  0.52406400  0.25853800  1
  Sb  Sb4  1  0.74796300  0.10785900  0.39075900  1
  Sb  Sb5  1  0.03137000  0.70770400  0.43471000  1
  Sb  Sb6  1  0.96863000  0.29229600  0.56529000  1
  Sb  Sb7  1  0.25203700  0.89214100  0.60924100  1
  Sb  Sb8  1  0.32641700  0.47593600  0.74146200  1
  Sb  Sb9  1  0.82641700  0.52406400  0.75853800  1
  Sb  Sb10  1  0.75203700  0.10785900  0.89075900  1
  Sb  Sb11  1  0.46863000  0.70770400  0.93471000  1
  Br  Br12  1  0.90128600  0.12499600  0.08790600  1
  Br  Br13  1  0.86552400  0.59752700  0.12400800  1
  Br  Br14  1  0.61243000  0.89660500  0.14707400  1
  Br  Br15  1  0.11243000  0.10339500  0.35292600  1
  Br  Br16  1  0.36552400  0.40247300  0.37599200  1
  Br  Br17  1  0.40128600  0.87500400  0.41209400  1
  Br  Br18  1  0.59871400  0.12499600  0.58790600  1
  Br  Br19  1  0.63447600  0.59752700  0.62400800  1
  Br  Br20  1  0.88757000  0.89660500  0.64707400  1
  Br  Br21  1  0.38757000  0.10339500  0.85292600  1
  Br  Br22  1  0.13447600  0.40247300  0.87599200  1
  Br  Br23  1  0.09871400  0.87500400  0.91209400  1
  O  O24  1  0.57219900  0.52866300  0.08620900  1
  O  O25  1  0.33997000  0.70537500  0.07000200  1
  O  O26  1  0.66164300  0.28433100  0.24913300  1
  O  O27  1  0.16164300  0.71566900  0.25086700  1
  O  O28  1  0.83997000  0.29462500  0.42999800  1
  O  O29  1  0.07219900  0.47133700  0.41379100  1
  O  O30  1  0.92780100  0.52866300  0.58620900  1
  O  O31  1  0.16003000  0.70537500  0.57000200  1
  O  O32  1  0.83835700  0.28433100  0.74913300  1
  O  O33  1  0.33835700  0.71566900  0.75086700  1
  O  O34  1  0.66003000  0.29462500  0.92999800  1
  O  O35  1  0.42780100  0.47133700  0.91379100  1
