# generated using pymatgen
data_TmGaO3
_symmetry_space_group_name_H-M   'P 1'
_cell_length_a   6.02952850
_cell_length_b   6.02952850
_cell_length_c   11.66974100
_cell_angle_alpha   90.00000000
_cell_angle_beta   90.00000000
_cell_angle_gamma   120.00000550
_symmetry_Int_Tables_number   1
_chemical_formula_structural   TmGaO3
_chemical_formula_sum   'Tm6 Ga6 O18'
_cell_volume   367.41639341
_cell_formula_units_Z   6
loop_
 _symmetry_equiv_pos_site_id
 _symmetry_equiv_pos_as_xyz
  1  'x, y, z'
loop_
 _atom_site_type_symbol
 _atom_site_label
 _atom_site_symmetry_multiplicity
 _atom_site_fract_x
 _atom_site_fract_y
 _atom_site_fract_z
 _atom_site_occupancy
  Tm  Tm0  1  0.33333300  0.66666700  0.23370400  1
  Tm  Tm1  1  0.00000000  0.00000000  0.27514100  1
  Tm  Tm2  1  0.00000000  0.00000000  0.77514100  1
  Tm  Tm3  1  0.33333300  0.66666700  0.73370400  1
  Tm  Tm4  1  0.66666700  0.33333300  0.73370400  1
  Tm  Tm5  1  0.66666700  0.33333300  0.23370400  1
  Ga  Ga6  1  0.00000000  0.66583100  0.50080500  1
  Ga  Ga7  1  0.00000000  0.33416900  0.00080500  1
  Ga  Ga8  1  0.33416900  0.33416900  0.50080500  1
  Ga  Ga9  1  0.33416900  0.00000000  0.00080500  1
  Ga  Ga10  1  0.66583100  0.66583100  0.00080500  1
  Ga  Ga11  1  0.66583100  0.00000000  0.50080500  1
  O  O12  1  0.00000000  0.69362000  0.66494100  1
  O  O13  1  0.00000000  0.64007100  0.33806400  1
  O  O14  1  0.00000000  0.35992900  0.83806400  1
  O  O15  1  0.00000000  0.30638000  0.16494100  1
  O  O16  1  0.33333300  0.66666700  0.02176000  1
  O  O17  1  0.00000000  0.00000000  0.47639900  1
  O  O18  1  0.00000000  0.00000000  0.97639900  1
  O  O19  1  0.33333300  0.66666700  0.52176000  1
  O  O20  1  0.30638000  0.30638000  0.66494100  1
  O  O21  1  0.35992900  0.35992900  0.33806400  1
  O  O22  1  0.30638000  0.00000000  0.16494100  1
  O  O23  1  0.64007100  0.64007100  0.83806400  1
  O  O24  1  0.69362000  0.69362000  0.16494100  1
  O  O25  1  0.35992900  0.00000000  0.83806400  1
  O  O26  1  0.66666700  0.33333300  0.52176000  1
  O  O27  1  0.66666700  0.33333300  0.02176000  1
  O  O28  1  0.64007100  0.00000000  0.33806400  1
  O  O29  1  0.69362000  0.00000000  0.66494100  1
