# generated using pymatgen
data_Lu(PO3)3
_symmetry_space_group_name_H-M   'P 1'
_cell_length_a   9.70985300
_cell_length_b   6.98170700
_cell_length_c   10.91431317
_cell_angle_alpha   88.24559824
_cell_angle_beta   90.00000000
_cell_angle_gamma   90.00000000
_symmetry_Int_Tables_number   1
_chemical_formula_structural   Lu(PO3)3
_chemical_formula_sum   'Lu4 P12 O36'
_cell_volume   739.54917742
_cell_formula_units_Z   4
loop_
 _symmetry_equiv_pos_site_id
 _symmetry_equiv_pos_as_xyz
  1  'x, y, z'
loop_
 _atom_site_type_symbol
 _atom_site_label
 _atom_site_symmetry_multiplicity
 _atom_site_fract_x
 _atom_site_fract_y
 _atom_site_fract_z
 _atom_site_occupancy
  Lu  Lu0  1  0.25000000  0.81014500  0.01898600  1
  Lu  Lu1  1  0.25000000  0.67304800  0.53733600  1
  Lu  Lu2  1  0.75000000  0.32695200  0.46266400  1
  Lu  Lu3  1  0.75000000  0.18985500  0.98101400  1
  P  P4  1  0.46403300  0.82516500  0.28416200  1
  P  P5  1  0.03596700  0.82516500  0.28416200  1
  P  P6  1  0.75000000  0.81456000  0.37492200  1
  P  P7  1  0.48781700  0.76573900  0.76784300  1
  P  P8  1  0.01218300  0.76573900  0.76784300  1
  P  P9  1  0.75000000  0.67791100  0.89812200  1
  P  P10  1  0.25000000  0.32208900  0.10187800  1
  P  P11  1  0.98781700  0.23426100  0.23215700  1
  P  P12  1  0.51218300  0.23426100  0.23215700  1
  P  P13  1  0.25000000  0.18544000  0.62507800  1
  P  P14  1  0.96403300  0.17483500  0.71583800  1
  P  P15  1  0.53596700  0.17483500  0.71583800  1
  O  O16  1  0.25000000  0.98776100  0.57458300  1
  O  O17  1  0.94841600  0.94862400  0.69383900  1
  O  O18  1  0.55158400  0.94862400  0.69383900  1
  O  O19  1  0.75000000  0.87686500  0.94646700  1
  O  O20  1  0.08743300  0.82697600  0.88032300  1
  O  O21  1  0.41256700  0.82697600  0.88032300  1
  O  O22  1  0.87280500  0.79453100  0.27668500  1
  O  O23  1  0.62719500  0.79453100  0.27668500  1
  O  O24  1  0.09240600  0.77939400  0.16100500  1
  O  O25  1  0.40759400  0.77939400  0.16100500  1
  O  O26  1  0.40571000  0.72633300  0.39640400  1
  O  O27  1  0.09429000  0.72633300  0.39640400  1
  O  O28  1  0.87590900  0.64938200  0.80382600  1
  O  O29  1  0.62409100  0.64938200  0.80382600  1
  O  O30  1  0.41109300  0.64892300  0.67739100  1
  O  O31  1  0.08890700  0.64892300  0.67739100  1
  O  O32  1  0.75000000  0.64388400  0.46229600  1
  O  O33  1  0.75000000  0.50745800  0.98504400  1
  O  O34  1  0.25000000  0.49254200  0.01495600  1
  O  O35  1  0.25000000  0.35611600  0.53770400  1
  O  O36  1  0.91109300  0.35107700  0.32260900  1
  O  O37  1  0.58890700  0.35107700  0.32260900  1
  O  O38  1  0.37590900  0.35061800  0.19617400  1
  O  O39  1  0.12409100  0.35061800  0.19617400  1
  O  O40  1  0.90571000  0.27366700  0.60359600  1
  O  O41  1  0.59429000  0.27366700  0.60359600  1
  O  O42  1  0.90759400  0.22060600  0.83899500  1
  O  O43  1  0.59240600  0.22060600  0.83899500  1
  O  O44  1  0.37280500  0.20546900  0.72331500  1
  O  O45  1  0.12719500  0.20546900  0.72331500  1
  O  O46  1  0.91256700  0.17302400  0.11967700  1
  O  O47  1  0.58743300  0.17302400  0.11967700  1
  O  O48  1  0.25000000  0.12313500  0.05353300  1
  O  O49  1  0.44841600  0.05137600  0.30616100  1
  O  O50  1  0.05158400  0.05137600  0.30616100  1
  O  O51  1  0.75000000  0.01223900  0.42541700  1
