# generated using pymatgen
data_Na3BSbPO7
_symmetry_space_group_name_H-M   'P 1'
_cell_length_a   6.95117000
_cell_length_b   5.47195400
_cell_length_c   9.31852802
_cell_angle_alpha   87.06228932
_cell_angle_beta   90.00000000
_cell_angle_gamma   90.00000000
_symmetry_Int_Tables_number   1
_chemical_formula_structural   Na3BSbPO7
_chemical_formula_sum   'Na6 B2 Sb2 P2 O14'
_cell_volume   353.97823230
_cell_formula_units_Z   2
loop_
 _symmetry_equiv_pos_site_id
 _symmetry_equiv_pos_as_xyz
  1  'x, y, z'
loop_
 _atom_site_type_symbol
 _atom_site_label
 _atom_site_symmetry_multiplicity
 _atom_site_fract_x
 _atom_site_fract_y
 _atom_site_fract_z
 _atom_site_occupancy
  Na  Na0  1  0.25000000  0.75951200  0.92976300  1
  Na  Na1  1  0.00795200  0.24930700  0.75182400  1
  Na  Na2  1  0.49204800  0.24930700  0.75182400  1
  Na  Na3  1  0.50795200  0.75069300  0.24817600  1
  Na  Na4  1  0.99204800  0.75069300  0.24817600  1
  Na  Na5  1  0.75000000  0.24048800  0.07023700  1
  B  B6  1  0.75000000  0.73595000  0.93374200  1
  B  B7  1  0.25000000  0.26405000  0.06625800  1
  Sb  Sb8  1  0.75000000  0.77797200  0.65458800  1
  Sb  Sb9  1  0.25000000  0.22202800  0.34541200  1
  P  P10  1  0.25000000  0.71929700  0.59996400  1
  P  P11  1  0.75000000  0.28070300  0.40003600  1
  O  O12  1  0.25000000  0.26991100  0.92331400  1
  O  O13  1  0.75000000  0.95955700  0.84574600  1
  O  O14  1  0.75000000  0.52911500  0.84829700  1
  O  O15  1  0.07371000  0.82268000  0.68359200  1
  O  O16  1  0.42629000  0.82268000  0.68359200  1
  O  O17  1  0.25000000  0.43939000  0.60958900  1
  O  O18  1  0.75000000  0.18782100  0.56249000  1
  O  O19  1  0.25000000  0.81217900  0.43751000  1
  O  O20  1  0.75000000  0.56061000  0.39041100  1
  O  O21  1  0.57371000  0.17732000  0.31640800  1
  O  O22  1  0.92629000  0.17732000  0.31640800  1
  O  O23  1  0.25000000  0.47088500  0.15170300  1
  O  O24  1  0.25000000  0.04044300  0.15425400  1
  O  O25  1  0.75000000  0.73008900  0.07668600  1
