# generated using pymatgen
data_Cs3LaO3
_symmetry_space_group_name_H-M   'P 1'
_cell_length_a   7.82800300
_cell_length_b   8.63981000
_cell_length_c   12.47856534
_cell_angle_alpha   85.38038357
_cell_angle_beta   90.00000000
_cell_angle_gamma   90.00000000
_symmetry_Int_Tables_number   1
_chemical_formula_structural   Cs3LaO3
_chemical_formula_sum   'Cs12 La4 O12'
_cell_volume   841.21434614
_cell_formula_units_Z   4
loop_
 _symmetry_equiv_pos_site_id
 _symmetry_equiv_pos_as_xyz
  1  'x, y, z'
loop_
 _atom_site_type_symbol
 _atom_site_label
 _atom_site_symmetry_multiplicity
 _atom_site_fract_x
 _atom_site_fract_y
 _atom_site_fract_z
 _atom_site_occupancy
  Cs  Cs0  1  0.33965700  0.34764200  0.07554200  1
  Cs  Cs1  1  0.61981800  0.94203500  0.15644800  1
  Cs  Cs2  1  0.82146800  0.38145900  0.19467700  1
  Cs  Cs3  1  0.32146800  0.61854100  0.30532300  1
  Cs  Cs4  1  0.11981800  0.05796500  0.34355200  1
  Cs  Cs5  1  0.83965700  0.65235800  0.42445800  1
  Cs  Cs6  1  0.16034300  0.34764200  0.57554200  1
  Cs  Cs7  1  0.88018200  0.94203500  0.65644800  1
  Cs  Cs8  1  0.67853200  0.38145900  0.69467700  1
  Cs  Cs9  1  0.17853200  0.61854100  0.80532300  1
  Cs  Cs10  1  0.38018200  0.05796500  0.84355200  1
  Cs  Cs11  1  0.66034300  0.65235800  0.92445800  1
  La  La12  1  0.09011300  0.83470800  0.07032600  1
  La  La13  1  0.59011300  0.16529200  0.42967400  1
  La  La14  1  0.40988700  0.83470800  0.57032600  1
  La  La15  1  0.90988700  0.16529200  0.92967400  1
  O  O16  1  0.35573000  0.74886700  0.04331300  1
  O  O17  1  0.05260700  0.10342900  0.09354300  1
  O  O18  1  0.94210200  0.69345700  0.19620700  1
  O  O19  1  0.44210200  0.30654300  0.30379300  1
  O  O20  1  0.55260700  0.89657100  0.40645700  1
  O  O21  1  0.85573000  0.25113300  0.45668700  1
  O  O22  1  0.14427000  0.74886700  0.54331300  1
  O  O23  1  0.44739300  0.10342900  0.59354300  1
  O  O24  1  0.55789800  0.69345700  0.69620700  1
  O  O25  1  0.05789800  0.30654300  0.80379300  1
  O  O26  1  0.94739300  0.89657100  0.90645700  1
  O  O27  1  0.64427000  0.25113300  0.95668700  1
