# generated using pymatgen
data_HoTa3O9
_symmetry_space_group_name_H-M   'P 1'
_cell_length_a   7.52611300
_cell_length_b   5.28723700
_cell_length_c   8.32551709
_cell_angle_alpha   87.33799940
_cell_angle_beta   90.00000000
_cell_angle_gamma   90.00000000
_symmetry_Int_Tables_number   1
_chemical_formula_structural   HoTa3O9
_chemical_formula_sum   'Ho2 Ta6 O18'
_cell_volume   330.93433470
_cell_formula_units_Z   2
loop_
 _symmetry_equiv_pos_site_id
 _symmetry_equiv_pos_as_xyz
  1  'x, y, z'
loop_
 _atom_site_type_symbol
 _atom_site_label
 _atom_site_symmetry_multiplicity
 _atom_site_fract_x
 _atom_site_fract_y
 _atom_site_fract_z
 _atom_site_occupancy
  Ho  Ho0  1  0.25000000  0.96384500  0.43516100  1
  Ho  Ho1  1  0.75000000  0.03615500  0.56483900  1
  Ta  Ta2  1  0.00000000  0.00000000  0.00000000  1
  Ta  Ta3  1  0.50000000  0.00000000  0.00000000  1
  Ta  Ta4  1  0.49376900  0.53094600  0.69495000  1
  Ta  Ta5  1  0.00623100  0.53094600  0.69495000  1
  Ta  Ta6  1  0.99376900  0.46905400  0.30505000  1
  Ta  Ta7  1  0.50623100  0.46905400  0.30505000  1
  O  O8  1  0.25000000  0.90655200  0.97754600  1
  O  O9  1  0.93475300  0.85293700  0.78429700  1
  O  O10  1  0.56524700  0.85293700  0.78429700  1
  O  O11  1  0.95666900  0.74339900  0.46793200  1
  O  O12  1  0.54333100  0.74339900  0.46793200  1
  O  O13  1  0.25000000  0.66469400  0.65352800  1
  O  O14  1  0.94829600  0.67332400  0.12114400  1
  O  O15  1  0.55170400  0.67332400  0.12114400  1
  O  O16  1  0.25000000  0.58089300  0.31569600  1
  O  O17  1  0.75000000  0.41910700  0.68430400  1
  O  O18  1  0.05170400  0.32667600  0.87885600  1
  O  O19  1  0.44829600  0.32667600  0.87885600  1
  O  O20  1  0.75000000  0.33530600  0.34647200  1
  O  O21  1  0.04333100  0.25660100  0.53206800  1
  O  O22  1  0.45666900  0.25660100  0.53206800  1
  O  O23  1  0.06524700  0.14706300  0.21570300  1
  O  O24  1  0.43475300  0.14706300  0.21570300  1
  O  O25  1  0.75000000  0.09344800  0.02245400  1
