# generated using pymatgen
data_Ba3(YI6)2
_symmetry_space_group_name_H-M   'P 1'
_cell_length_a   13.31841800
_cell_length_b   13.31841800
_cell_length_c   8.01321200
_cell_angle_alpha   90.00000000
_cell_angle_beta   90.00000000
_cell_angle_gamma   90.00000000
_symmetry_Int_Tables_number   1
_chemical_formula_structural   Ba3(YI6)2
_chemical_formula_sum   'Ba6 Y4 I24'
_cell_volume   1421.38561215
_cell_formula_units_Z   2
loop_
 _symmetry_equiv_pos_site_id
 _symmetry_equiv_pos_as_xyz
  1  'x, y, z'
loop_
 _atom_site_type_symbol
 _atom_site_label
 _atom_site_symmetry_multiplicity
 _atom_site_fract_x
 _atom_site_fract_y
 _atom_site_fract_z
 _atom_site_occupancy
  Ba  Ba0  1  0.00000000  0.00000000  0.00000000  1
  Ba  Ba1  1  0.68183600  0.18183600  0.50000000  1
  Ba  Ba2  1  0.18183600  0.31816400  0.50000000  1
  Ba  Ba3  1  0.50000000  0.50000000  0.00000000  1
  Ba  Ba4  1  0.81816400  0.68183600  0.50000000  1
  Ba  Ba5  1  0.31816400  0.81816400  0.50000000  1
  Y  Y6  1  0.36340000  0.13660000  0.00000000  1
  Y  Y7  1  0.86340000  0.36340000  0.00000000  1
  Y  Y8  1  0.13660000  0.63660000  0.00000000  1
  Y  Y9  1  0.63660000  0.86340000  0.00000000  1
  I  I10  1  0.50000000  0.00000000  0.23951100  1
  I  I11  1  0.50000000  0.00000000  0.76048900  1
  I  I12  1  0.21434500  0.05206500  0.26428500  1
  I  I13  1  0.21434500  0.05206500  0.73571500  1
  I  I14  1  0.70023400  0.20023400  0.00000000  1
  I  I15  1  0.94793500  0.21434500  0.26428500  1
  I  I16  1  0.94793500  0.21434500  0.73571500  1
  I  I17  1  0.44793500  0.28565500  0.26428500  1
  I  I18  1  0.44793500  0.28565500  0.73571500  1
  I  I19  1  0.20023400  0.29976600  0.00000000  1
  I  I20  1  0.71434500  0.44793500  0.26428500  1
  I  I21  1  0.71434500  0.44793500  0.73571500  1
  I  I22  1  0.00000000  0.50000000  0.76048900  1
  I  I23  1  0.00000000  0.50000000  0.23951100  1
  I  I24  1  0.28565500  0.55206500  0.26428500  1
  I  I25  1  0.28565500  0.55206500  0.73571500  1
  I  I26  1  0.79976600  0.70023400  0.00000000  1
  I  I27  1  0.55206500  0.71434500  0.26428500  1
  I  I28  1  0.55206500  0.71434500  0.73571500  1
  I  I29  1  0.05206500  0.78565500  0.26428500  1
  I  I30  1  0.05206500  0.78565500  0.73571500  1
  I  I31  1  0.29976600  0.79976600  0.00000000  1
  I  I32  1  0.78565500  0.94793500  0.26428500  1
  I  I33  1  0.78565500  0.94793500  0.73571500  1
