# generated using pymatgen
data_HfP2O7
_symmetry_space_group_name_H-M   'P 1'
_cell_length_a   13.06091700
_cell_length_b   5.22660500
_cell_length_c   9.77233398
_cell_angle_alpha   58.68951658
_cell_angle_beta   90.00000000
_cell_angle_gamma   90.00000000
_symmetry_Int_Tables_number   1
_chemical_formula_structural   HfP2O7
_chemical_formula_sum   'Hf4 P8 O28'
_cell_volume   569.94699528
_cell_formula_units_Z   4
loop_
 _symmetry_equiv_pos_site_id
 _symmetry_equiv_pos_as_xyz
  1  'x, y, z'
loop_
 _atom_site_type_symbol
 _atom_site_label
 _atom_site_symmetry_multiplicity
 _atom_site_fract_x
 _atom_site_fract_y
 _atom_site_fract_z
 _atom_site_occupancy
  Hf  Hf0  1  0.15023900  0.62511000  0.65843600  1
  Hf  Hf1  1  0.65023900  0.37489000  0.84156400  1
  Hf  Hf2  1  0.34976100  0.62511000  0.15843600  1
  Hf  Hf3  1  0.84976100  0.37489000  0.34156400  1
  P  P4  1  0.52234900  0.10241400  0.19987400  1
  P  P5  1  0.18867900  0.21547000  0.06800200  1
  P  P6  1  0.68867900  0.78453000  0.43199800  1
  P  P7  1  0.02234900  0.89758600  0.30012600  1
  P  P8  1  0.97765100  0.10241400  0.69987400  1
  P  P9  1  0.31132100  0.21547000  0.56800200  1
  P  P10  1  0.81132100  0.78453000  0.93199800  1
  P  P11  1  0.47765100  0.89758600  0.80012600  1
  O  O12  1  0.27051200  0.92784500  0.58316400  1
  O  O13  1  0.25056300  0.30947100  0.16726400  1
  O  O14  1  0.94474000  0.05846200  0.34577300  1
  O  O15  1  0.52867900  0.67877300  0.76305400  1
  O  O16  1  0.17877300  0.47152200  0.89510800  1
  O  O17  1  0.60749000  0.24649500  0.07458500  1
  O  O18  1  0.07304800  0.15368700  0.13456000  1
  O  O19  1  0.57304800  0.84631300  0.36544000  1
  O  O20  1  0.10749000  0.75350500  0.42541500  1
  O  O21  1  0.67877300  0.52847800  0.60489200  1
  O  O22  1  0.44474000  0.94153800  0.15422700  1
  O  O23  1  0.02867900  0.32122700  0.73694600  1
  O  O24  1  0.75056300  0.69052900  0.33273600  1
  O  O25  1  0.77051200  0.07215500  0.91683600  1
  O  O26  1  0.22948800  0.92784500  0.08316400  1
  O  O27  1  0.24943700  0.30947100  0.66726400  1
  O  O28  1  0.97132100  0.67877300  0.26305400  1
  O  O29  1  0.55526000  0.05846200  0.84577300  1
  O  O30  1  0.32122700  0.47152200  0.39510800  1
  O  O31  1  0.89251000  0.24649500  0.57458500  1
  O  O32  1  0.42695200  0.15368700  0.63456000  1
  O  O33  1  0.92695200  0.84631300  0.86544000  1
  O  O34  1  0.39251000  0.75350500  0.92541500  1
  O  O35  1  0.82122700  0.52847800  0.10489200  1
  O  O36  1  0.47132100  0.32122700  0.23694600  1
  O  O37  1  0.05526000  0.94153800  0.65422700  1
  O  O38  1  0.74943700  0.69052900  0.83273600  1
  O  O39  1  0.72948800  0.07215500  0.41683600  1
