# generated using pymatgen
data_Sr4Br6O
_symmetry_space_group_name_H-M   'P 1'
_cell_length_a   9.74649700
_cell_length_b   9.74649700
_cell_length_c   7.35794300
_cell_angle_alpha   90.00000000
_cell_angle_beta   90.00000000
_cell_angle_gamma   90.00000000
_symmetry_Int_Tables_number   1
_chemical_formula_structural   Sr4Br6O
_chemical_formula_sum   'Sr8 Br12 O2'
_cell_volume   698.96193668
_cell_formula_units_Z   2
loop_
 _symmetry_equiv_pos_site_id
 _symmetry_equiv_pos_as_xyz
  1  'x, y, z'
loop_
 _atom_site_type_symbol
 _atom_site_label
 _atom_site_symmetry_multiplicity
 _atom_site_fract_x
 _atom_site_fract_y
 _atom_site_fract_z
 _atom_site_occupancy
  Sr  Sr0  1  0.00000000  0.23154200  0.34333500  1
  Sr  Sr1  1  0.73154200  0.50000000  0.84333500  1
  Sr  Sr2  1  0.26845800  0.50000000  0.84333500  1
  Sr  Sr3  1  0.00000000  0.76845800  0.34333500  1
  Sr  Sr4  1  0.50000000  0.73154200  0.15666500  1
  Sr  Sr5  1  0.23154200  0.00000000  0.65666500  1
  Sr  Sr6  1  0.76845800  0.00000000  0.65666500  1
  Sr  Sr7  1  0.50000000  0.26845800  0.15666500  1
  Br  Br8  1  0.70332900  0.29667100  0.50000000  1
  Br  Br9  1  0.29667100  0.29667100  0.50000000  1
  Br  Br10  1  0.00000000  0.50000000  0.61145600  1
  Br  Br11  1  0.00000000  0.50000000  0.11145600  1
  Br  Br12  1  0.29667100  0.70332900  0.50000000  1
  Br  Br13  1  0.70332900  0.70332900  0.50000000  1
  Br  Br14  1  0.79667100  0.79667100  0.00000000  1
  Br  Br15  1  0.20332900  0.79667100  0.00000000  1
  Br  Br16  1  0.50000000  0.00000000  0.88854400  1
  Br  Br17  1  0.50000000  0.00000000  0.38854400  1
  Br  Br18  1  0.79667100  0.20332900  0.00000000  1
  Br  Br19  1  0.20332900  0.20332900  0.00000000  1
  O  O20  1  0.50000000  0.50000000  0.00000000  1
  O  O21  1  0.00000000  0.00000000  0.50000000  1
