# generated using pymatgen
data_Sn2Ge2O7
_symmetry_space_group_name_H-M   'P 1'
_cell_length_a   6.90785500
_cell_length_b   6.97796300
_cell_length_c   13.26423998
_cell_angle_alpha   80.91648261
_cell_angle_beta   84.63336139
_cell_angle_gamma   81.53032326
_symmetry_Int_Tables_number   1
_chemical_formula_structural   Sn2Ge2O7
_chemical_formula_sum   'Sn8 Ge8 O28'
_cell_volume   622.85051987
_cell_formula_units_Z   4
loop_
 _symmetry_equiv_pos_site_id
 _symmetry_equiv_pos_as_xyz
  1  'x, y, z'
loop_
 _atom_site_type_symbol
 _atom_site_label
 _atom_site_symmetry_multiplicity
 _atom_site_fract_x
 _atom_site_fract_y
 _atom_site_fract_z
 _atom_site_occupancy
  Sn  Sn0  1  0.41820700  0.22506800  0.13176000  1
  Sn  Sn1  1  0.06276700  0.66910900  0.13719800  1
  Sn  Sn2  1  0.65583500  0.22899700  0.35967700  1
  Sn  Sn3  1  0.13186600  0.89393100  0.34556300  1
  Sn  Sn4  1  0.86813400  0.10606900  0.65443700  1
  Sn  Sn5  1  0.34416500  0.77100300  0.64032300  1
  Sn  Sn6  1  0.93723300  0.33089100  0.86280200  1
  Sn  Sn7  1  0.58179300  0.77493200  0.86824000  1
  Ge  Ge8  1  0.92280600  0.19367000  0.12656100  1
  Ge  Ge9  1  0.54987200  0.68326400  0.19601500  1
  Ge  Ge10  1  0.13918400  0.37670900  0.37077400  1
  Ge  Ge11  1  0.63995900  0.71960200  0.42340500  1
  Ge  Ge12  1  0.36004100  0.28039800  0.57659500  1
  Ge  Ge13  1  0.86081600  0.62329100  0.62922600  1
  Ge  Ge14  1  0.45012800  0.31673600  0.80398500  1
  Ge  Ge15  1  0.07719400  0.80633000  0.87343900  1
  O  O16  1  0.15031200  0.79571000  0.99616600  1
  O  O17  1  0.08749400  0.36162500  0.13753800  1
  O  O18  1  0.76730300  0.69377000  0.11707300  1
  O  O19  1  0.37838300  0.56435000  0.14432700  1
  O  O20  1  0.69987900  0.25675900  0.20224200  1
  O  O21  1  0.03260500  0.95725000  0.18203500  1
  O  O22  1  0.42492900  0.89857000  0.23579300  1
  O  O23  1  0.61446800  0.55571700  0.33030800  1
  O  O24  1  0.36076600  0.24533300  0.31888500  1
  O  O25  1  0.06586300  0.60877700  0.29814200  1
  O  O26  1  0.74535000  0.93028500  0.37102600  1
  O  O27  1  0.95610200  0.22446700  0.37174900  1
  O  O28  1  0.40887400  0.76909000  0.48868300  1
  O  O29  1  0.19073400  0.42541400  0.49271500  1
  O  O30  1  0.80926600  0.57458600  0.50728500  1
  O  O31  1  0.59112600  0.23091000  0.51131700  1
  O  O32  1  0.04389800  0.77553300  0.62825100  1
  O  O33  1  0.25465000  0.06971500  0.62897400  1
  O  O34  1  0.93413700  0.39122300  0.70185800  1
  O  O35  1  0.63923400  0.75466700  0.68111500  1
  O  O36  1  0.38553200  0.44428300  0.66969200  1
  O  O37  1  0.57507100  0.10143000  0.76420700  1
  O  O38  1  0.96739500  0.04275000  0.81796500  1
  O  O39  1  0.30012100  0.74324100  0.79775800  1
  O  O40  1  0.62161700  0.43565000  0.85567300  1
  O  O41  1  0.23269700  0.30623000  0.88292700  1
  O  O42  1  0.91250600  0.63837500  0.86246200  1
  O  O43  1  0.84968800  0.20429000  0.00383400  1
