# generated using pymatgen
data_Bi6B10O21
_symmetry_space_group_name_H-M   'P 1'
_cell_length_a   7.08905800
_cell_length_b   7.16172200
_cell_length_c   11.35306411
_cell_angle_alpha   102.60385719
_cell_angle_beta   86.38037874
_cell_angle_gamma   116.69185329
_symmetry_Int_Tables_number   1
_chemical_formula_structural   Bi6B10O21
_chemical_formula_sum   'Bi6 B10 O21'
_cell_volume   502.15814730
_cell_formula_units_Z   1
loop_
 _symmetry_equiv_pos_site_id
 _symmetry_equiv_pos_as_xyz
  1  'x, y, z'
loop_
 _atom_site_type_symbol
 _atom_site_label
 _atom_site_symmetry_multiplicity
 _atom_site_fract_x
 _atom_site_fract_y
 _atom_site_fract_z
 _atom_site_occupancy
  Bi  Bi0  1  0.76011700  0.27033200  0.91107700  1
  Bi  Bi1  1  0.21068000  0.99935700  0.44229400  1
  Bi  Bi2  1  0.84627000  0.26811500  0.36566100  1
  Bi  Bi3  1  0.15373000  0.73188500  0.63433900  1
  Bi  Bi4  1  0.78932000  0.00064300  0.55770600  1
  Bi  Bi5  1  0.23988300  0.72966800  0.08892300  1
  B  B6  1  0.42140800  0.17881100  0.72614400  1
  B  B7  1  0.17102800  0.32488600  0.77320400  1
  B  B8  1  0.61960500  0.44620600  0.58907000  1
  B  B9  1  0.56213300  0.56986900  0.80144200  1
  B  B10  1  0.86439300  0.78911300  0.95566200  1
  B  B11  1  0.13560700  0.21088700  0.04433800  1
  B  B12  1  0.43786700  0.43013100  0.19855800  1
  B  B13  1  0.38039500  0.55379400  0.41093000  1
  B  B14  1  0.82897200  0.67511400  0.22679600  1
  B  B15  1  0.57859200  0.82118900  0.27385600  1
  O  O16  1  0.96380300  0.29663800  0.76013000  1
  O  O17  1  0.00000000  0.00000000  0.00000000  1
  O  O18  1  0.54969700  0.00459700  0.27112600  1
  O  O19  1  0.20153100  0.14330600  0.75028800  1
  O  O20  1  0.46777900  0.24048800  0.60098000  1
  O  O21  1  0.56731200  0.36644300  0.81476800  1
  O  O22  1  0.91935500  0.63150700  0.97285100  1
  O  O23  1  0.73199100  0.48079000  0.48709000  1
  O  O24  1  0.33665100  0.52737300  0.80207100  1
  O  O25  1  0.31964900  0.25244900  0.10122000  1
  O  O26  1  0.66104900  0.61509200  0.68600700  1
  O  O27  1  0.33895100  0.38490800  0.31399300  1
  O  O28  1  0.68035100  0.74755100  0.89878000  1
  O  O29  1  0.66334900  0.47262700  0.19792900  1
  O  O30  1  0.26800900  0.51921000  0.51291000  1
  O  O31  1  0.08064500  0.36849300  0.02714900  1
  O  O32  1  0.43268800  0.63355700  0.18523200  1
  O  O33  1  0.53222100  0.75951200  0.39902000  1
  O  O34  1  0.79846900  0.85669400  0.24971200  1
  O  O35  1  0.45030300  0.99540300  0.72887400  1
  O  O36  1  0.03619700  0.70336200  0.23987000  1
