# generated using pymatgen
data_Mg2(TeO3)3
_symmetry_space_group_name_H-M   'P 1'
_cell_length_a   7.25875800
_cell_length_b   9.18411500
_cell_length_c   12.59304163
_cell_angle_alpha   58.05132009
_cell_angle_beta   90.00000000
_cell_angle_gamma   90.00000000
_symmetry_Int_Tables_number   1
_chemical_formula_structural   Mg2(TeO3)3
_chemical_formula_sum   'Mg8 Te12 O36'
_cell_volume   712.35025703
_cell_formula_units_Z   4
loop_
 _symmetry_equiv_pos_site_id
 _symmetry_equiv_pos_as_xyz
  1  'x, y, z'
loop_
 _atom_site_type_symbol
 _atom_site_label
 _atom_site_symmetry_multiplicity
 _atom_site_fract_x
 _atom_site_fract_y
 _atom_site_fract_z
 _atom_site_occupancy
  Mg  Mg0  1  0.86911100  0.60448500  0.85907000  1
  Mg  Mg1  1  0.37696100  0.59518700  0.86229100  1
  Mg  Mg2  1  0.87696100  0.40481300  0.63770900  1
  Mg  Mg3  1  0.36911100  0.39551500  0.64093000  1
  Mg  Mg4  1  0.63088900  0.60448500  0.35907000  1
  Mg  Mg5  1  0.12303900  0.59518700  0.36229100  1
  Mg  Mg6  1  0.62303900  0.40481300  0.13770900  1
  Mg  Mg7  1  0.13088900  0.39551500  0.14093000  1
  Te  Te8  1  0.12692100  0.99564600  0.75146900  1
  Te  Te9  1  0.11478800  0.77676400  0.55949900  1
  Te  Te10  1  0.61914000  0.76032900  0.57147500  1
  Te  Te11  1  0.37307900  0.99564600  0.25146900  1
  Te  Te12  1  0.11914000  0.23967100  0.92852500  1
  Te  Te13  1  0.61478800  0.22323600  0.94050100  1
  Te  Te14  1  0.38521200  0.77676400  0.05949900  1
  Te  Te15  1  0.88086000  0.76032900  0.07147500  1
  Te  Te16  1  0.62692100  0.00435400  0.74853100  1
  Te  Te17  1  0.38086000  0.23967100  0.42852500  1
  Te  Te18  1  0.88521200  0.22323600  0.44050100  1
  Te  Te19  1  0.87307900  0.00435400  0.24853100  1
  O  O20  1  0.56638200  0.93064100  0.92511600  1
  O  O21  1  0.19173000  0.91691400  0.92571900  1
  O  O22  1  0.87614900  0.95933100  0.81441100  1
  O  O23  1  0.61346600  0.77240700  0.79214100  1
  O  O24  1  0.13346100  0.76152800  0.79481500  1
  O  O25  1  0.93361800  0.93064100  0.42511600  1
  O  O26  1  0.30827000  0.91691400  0.42571900  1
  O  O27  1  0.62385100  0.95933100  0.31441100  1
  O  O28  1  0.84452000  0.67297300  0.67030000  1
  O  O29  1  0.41244200  0.63747100  0.67726800  1
  O  O30  1  0.14052400  0.41735900  0.96629900  1
  O  O31  1  0.61191300  0.41766400  0.95809800  1
  O  O32  1  0.11191300  0.58233600  0.54190200  1
  O  O33  1  0.64052400  0.58264100  0.53370100  1
  O  O34  1  0.88653400  0.77240700  0.29214100  1
  O  O35  1  0.91244200  0.36252900  0.82273200  1
  O  O36  1  0.36653900  0.76152800  0.29481500  1
  O  O37  1  0.34452000  0.32702700  0.82970000  1
  O  O38  1  0.65548000  0.67297300  0.17030000  1
  O  O39  1  0.63346100  0.23847200  0.70518500  1
  O  O40  1  0.08755800  0.63747100  0.17726800  1
  O  O41  1  0.11346600  0.22759300  0.70785900  1
  O  O42  1  0.35947600  0.41735900  0.46629900  1
  O  O43  1  0.88808700  0.41766400  0.45809800  1
  O  O44  1  0.38808700  0.58233600  0.04190200  1
  O  O45  1  0.85947600  0.58264100  0.03370100  1
  O  O46  1  0.58755800  0.36252900  0.32273200  1
  O  O47  1  0.15548000  0.32702700  0.32970000  1
  O  O48  1  0.37614900  0.04066900  0.68558900  1
  O  O49  1  0.69173000  0.08308600  0.57428100  1
  O  O50  1  0.06638200  0.06935900  0.57488400  1
  O  O51  1  0.86653900  0.23847200  0.20518500  1
  O  O52  1  0.38653400  0.22759300  0.20785900  1
  O  O53  1  0.12385100  0.04066900  0.18558900  1
  O  O54  1  0.80827000  0.08308600  0.07428100  1
  O  O55  1  0.43361800  0.06935900  0.07488400  1
