# generated using pymatgen
data_YHoO3
_symmetry_space_group_name_H-M   'P 1'
_cell_length_a   6.42506431
_cell_length_b   6.42506431
_cell_length_c   12.76526000
_cell_angle_alpha   90.00000000
_cell_angle_beta   90.00000000
_cell_angle_gamma   120.00000317
_symmetry_Int_Tables_number   1
_chemical_formula_structural   YHoO3
_chemical_formula_sum   'Y6 Ho6 O18'
_cell_volume   456.36805856
_cell_formula_units_Z   6
loop_
 _symmetry_equiv_pos_site_id
 _symmetry_equiv_pos_as_xyz
  1  'x, y, z'
loop_
 _atom_site_type_symbol
 _atom_site_label
 _atom_site_symmetry_multiplicity
 _atom_site_fract_x
 _atom_site_fract_y
 _atom_site_fract_z
 _atom_site_occupancy
  Y  Y0  1  0.33333300  0.66666700  0.23698700  1
  Y  Y1  1  0.00000000  0.00000000  0.26985200  1
  Y  Y2  1  0.00000000  0.00000000  0.76985200  1
  Y  Y3  1  0.33333300  0.66666700  0.73698700  1
  Y  Y4  1  0.66666700  0.33333300  0.73698700  1
  Y  Y5  1  0.66666700  0.33333300  0.23698700  1
  Ho  Ho6  1  0.00000000  0.66686900  0.50145600  1
  Ho  Ho7  1  0.00000000  0.33313100  0.00145600  1
  Ho  Ho8  1  0.33313100  0.33313100  0.50145600  1
  Ho  Ho9  1  0.66686900  0.66686900  0.00145600  1
  Ho  Ho10  1  0.33313100  0.00000000  0.00145600  1
  Ho  Ho11  1  0.66686900  0.00000000  0.50145600  1
  O  O12  1  0.00000000  0.69328900  0.67494500  1
  O  O13  1  0.00000000  0.63777200  0.32953700  1
  O  O14  1  0.00000000  0.36222800  0.82953700  1
  O  O15  1  0.00000000  0.30671100  0.17494500  1
  O  O16  1  0.33333300  0.66666700  0.02903900  1
  O  O17  1  0.00000000  0.00000000  0.46788300  1
  O  O18  1  0.00000000  0.00000000  0.96788300  1
  O  O19  1  0.33333300  0.66666700  0.52903900  1
  O  O20  1  0.30671100  0.30671100  0.67494500  1
  O  O21  1  0.36222800  0.36222800  0.32953700  1
  O  O22  1  0.30671100  0.00000000  0.17494500  1
  O  O23  1  0.63777200  0.63777200  0.82953700  1
  O  O24  1  0.69328900  0.69328900  0.17494500  1
  O  O25  1  0.36222800  0.00000000  0.82953700  1
  O  O26  1  0.66666700  0.33333300  0.52903900  1
  O  O27  1  0.66666700  0.33333300  0.02903900  1
  O  O28  1  0.63777200  0.00000000  0.32953700  1
  O  O29  1  0.69328900  0.00000000  0.67494500  1
