# generated using pymatgen
data_Y2GeO5
_symmetry_space_group_name_H-M   'P 1'
_cell_length_a   7.03111000
_cell_length_b   6.81152200
_cell_length_c   9.37370351
_cell_angle_alpha   76.97122633
_cell_angle_beta   90.00000000
_cell_angle_gamma   90.00000000
_symmetry_Int_Tables_number   1
_chemical_formula_structural   Y2GeO5
_chemical_formula_sum   'Y8 Ge4 O20'
_cell_volume   437.37382748
_cell_formula_units_Z   4
loop_
 _symmetry_equiv_pos_site_id
 _symmetry_equiv_pos_as_xyz
  1  'x, y, z'
loop_
 _atom_site_type_symbol
 _atom_site_label
 _atom_site_symmetry_multiplicity
 _atom_site_fract_x
 _atom_site_fract_y
 _atom_site_fract_z
 _atom_site_occupancy
  Y  Y0  1  0.63895200  0.02445400  0.14228900  1
  Y  Y1  1  0.86104800  0.52445400  0.14228900  1
  Y  Y2  1  0.62436200  0.23007300  0.47202000  1
  Y  Y3  1  0.12436200  0.26992700  0.52798000  1
  Y  Y4  1  0.87563800  0.73007300  0.47202000  1
  Y  Y5  1  0.37563800  0.76992700  0.52798000  1
  Y  Y6  1  0.13895200  0.47554600  0.85771100  1
  Y  Y7  1  0.36104800  0.97554600  0.85771100  1
  Ge  Ge8  1  0.09567700  0.01494300  0.19914100  1
  Ge  Ge9  1  0.40432300  0.51494300  0.19914100  1
  Ge  Ge10  1  0.59567700  0.48505700  0.80085900  1
  Ge  Ge11  1  0.90432300  0.98505700  0.80085900  1
  O  O12  1  0.30335600  0.99254500  0.10395100  1
  O  O13  1  0.93114000  0.20355300  0.11916700  1
  O  O14  1  0.19664400  0.49254500  0.10395100  1
  O  O15  1  0.57765000  0.31307600  0.21856700  1
  O  O16  1  0.56886000  0.70355300  0.11916700  1
  O  O17  1  0.92235000  0.81307600  0.21856700  1
  O  O18  1  0.88260400  0.42552700  0.39192800  1
  O  O19  1  0.35967400  0.48839800  0.39105200  1
  O  O20  1  0.61739600  0.92552700  0.39192800  1
  O  O21  1  0.14032600  0.98839800  0.39105200  1
  O  O22  1  0.85967400  0.01160200  0.60894800  1
  O  O23  1  0.38260400  0.07447300  0.60807200  1
  O  O24  1  0.64032600  0.51160200  0.60894800  1
  O  O25  1  0.11739600  0.57447300  0.60807200  1
  O  O26  1  0.07765000  0.18692400  0.78143300  1
  O  O27  1  0.43114000  0.29644700  0.88083300  1
  O  O28  1  0.42235000  0.68692400  0.78143300  1
  O  O29  1  0.80335600  0.50745500  0.89604900  1
  O  O30  1  0.06886000  0.79644700  0.88083300  1
  O  O31  1  0.69664400  0.00745500  0.89604900  1
