# generated using pymatgen
data_SrLaCl5
_symmetry_space_group_name_H-M   'P 1'
_cell_length_a   4.27053500
_cell_length_b   7.45478500
_cell_length_c   13.14124963
_cell_angle_alpha   85.71667651
_cell_angle_beta   90.00000000
_cell_angle_gamma   90.00000000
_symmetry_Int_Tables_number   1
_chemical_formula_structural   SrLaCl5
_chemical_formula_sum   'Sr2 La2 Cl10'
_cell_volume   417.19524966
_cell_formula_units_Z   2
loop_
 _symmetry_equiv_pos_site_id
 _symmetry_equiv_pos_as_xyz
  1  'x, y, z'
loop_
 _atom_site_type_symbol
 _atom_site_label
 _atom_site_symmetry_multiplicity
 _atom_site_fract_x
 _atom_site_fract_y
 _atom_site_fract_z
 _atom_site_occupancy
  Sr  Sr0  1  0.75000000  0.54200600  0.64736000  1
  Sr  Sr1  1  0.25000000  0.45799400  0.35264000  1
  La  La2  1  0.25000000  0.95086500  0.83939500  1
  La  La3  1  0.75000000  0.04913500  0.16060500  1
  Cl  Cl4  1  0.75000000  0.95405800  0.68606400  1
  Cl  Cl5  1  0.25000000  0.85704100  0.06565700  1
  Cl  Cl6  1  0.25000000  0.69151600  0.52346100  1
  Cl  Cl7  1  0.75000000  0.67570100  0.87871700  1
  Cl  Cl8  1  0.75000000  0.68394300  0.26008400  1
  Cl  Cl9  1  0.25000000  0.31605700  0.73991600  1
  Cl  Cl10  1  0.25000000  0.32429900  0.12128300  1
  Cl  Cl11  1  0.75000000  0.30848400  0.47653900  1
  Cl  Cl12  1  0.75000000  0.14295900  0.93434300  1
  Cl  Cl13  1  0.25000000  0.04594200  0.31393600  1
