# generated using pymatgen
data_YB5O9
_symmetry_space_group_name_H-M   'P 1'
_cell_length_a   11.48887100
_cell_length_b   6.38490900
_cell_length_c   8.14422628
_cell_angle_alpha   74.34130132
_cell_angle_beta   90.00000000
_cell_angle_gamma   90.00000000
_symmetry_Int_Tables_number   1
_chemical_formula_structural   YB5O9
_chemical_formula_sum   'Y4 B20 O36'
_cell_volume   575.25052015
_cell_formula_units_Z   4
loop_
 _symmetry_equiv_pos_site_id
 _symmetry_equiv_pos_as_xyz
  1  'x, y, z'
loop_
 _atom_site_type_symbol
 _atom_site_label
 _atom_site_symmetry_multiplicity
 _atom_site_fract_x
 _atom_site_fract_y
 _atom_site_fract_z
 _atom_site_occupancy
  Y  Y0  1  0.17619300  0.74768900  0.86332000  1
  Y  Y1  1  0.32380700  0.74768900  0.36332000  1
  Y  Y2  1  0.67619300  0.25231100  0.63668000  1
  Y  Y3  1  0.82380700  0.25231100  0.13668000  1
  B  B4  1  0.87255700  0.80937000  0.91174800  1
  B  B5  1  0.46927200  0.85812300  0.74286800  1
  B  B6  1  0.74738700  0.77407900  0.67169600  1
  B  B7  1  0.62744300  0.80937000  0.41174800  1
  B  B8  1  0.03072800  0.85812300  0.24286800  1
  B  B9  1  0.05841500  0.70986800  0.54895000  1
  B  B10  1  0.75261300  0.77407900  0.17169600  1
  B  B11  1  0.90252400  0.51176700  0.78001100  1
  B  B12  1  0.44158500  0.70986800  0.04895000  1
  B  B13  1  0.40252400  0.48823300  0.71998900  1
  B  B14  1  0.59747600  0.51176700  0.28001100  1
  B  B15  1  0.55841500  0.29013200  0.95105000  1
  B  B16  1  0.09747600  0.48823300  0.21998900  1
  B  B17  1  0.24738700  0.22592100  0.82830400  1
  B  B18  1  0.94158500  0.29013200  0.45105000  1
  B  B19  1  0.96927200  0.14187700  0.75713200  1
  B  B20  1  0.37255700  0.19063000  0.58825200  1
  B  B21  1  0.25261300  0.22592100  0.32830400  1
  B  B22  1  0.53072800  0.14187700  0.25713200  1
  B  B23  1  0.12744300  0.19063000  0.08825200  1
  O  O24  1  0.98241400  0.92313800  0.83947900  1
  O  O25  1  0.77930900  0.89513000  0.78122100  1
  O  O26  1  0.51257000  0.77728100  0.90644900  1
  O  O27  1  0.65745200  0.86680200  0.56745800  1
  O  O28  1  0.51758600  0.92313800  0.33947900  1
  O  O29  1  0.72069100  0.89513000  0.28122100  1
  O  O30  1  0.17406400  0.75899600  0.55034200  1
  O  O31  1  0.40365200  0.72877800  0.66757800  1
  O  O32  1  0.98743000  0.77728100  0.40644900  1
  O  O33  1  0.88394800  0.57519000  0.93879800  1
  O  O34  1  0.84254800  0.86680200  0.06745800  1
  O  O35  1  0.01373200  0.59906800  0.70548900  1
  O  O36  1  0.79854300  0.58070400  0.66739000  1
  O  O37  1  0.32593600  0.75899600  0.05034200  1
  O  O38  1  0.09634800  0.72877800  0.16757800  1
  O  O39  1  0.61605200  0.57519000  0.43879800  1
  O  O40  1  0.29854300  0.41929600  0.83261000  1
  O  O41  1  0.51373200  0.40093200  0.79451100  1
  O  O42  1  0.48626800  0.59906800  0.20548900  1
  O  O43  1  0.70145700  0.58070400  0.16739000  1
  O  O44  1  0.38394800  0.42481000  0.56120200  1
  O  O45  1  0.90365200  0.27122200  0.83242200  1
  O  O46  1  0.67406400  0.24100400  0.94965800  1
  O  O47  1  0.20145700  0.41929600  0.33261000  1
  O  O48  1  0.98626800  0.40093200  0.29451100  1
  O  O49  1  0.15745200  0.13319800  0.93254200  1
  O  O50  1  0.11605200  0.42481000  0.06120200  1
  O  O51  1  0.01257000  0.22271900  0.59355100  1
  O  O52  1  0.59634800  0.27122200  0.33242200  1
  O  O53  1  0.82593600  0.24100400  0.44965800  1
  O  O54  1  0.27930900  0.10487000  0.71877900  1
  O  O55  1  0.48241400  0.07686200  0.66052100  1
  O  O56  1  0.34254800  0.13319800  0.43254200  1
  O  O57  1  0.48743000  0.22271900  0.09355100  1
  O  O58  1  0.22069100  0.10487000  0.21877900  1
  O  O59  1  0.01758600  0.07686200  0.16052100  1
