# generated using pymatgen
data_YScO3
_symmetry_space_group_name_H-M   'P 1'
_cell_length_a   6.21724242
_cell_length_b   6.21724242
_cell_length_c   12.29962700
_cell_angle_alpha   90.00000000
_cell_angle_beta   90.00000000
_cell_angle_gamma   120.00000448
_symmetry_Int_Tables_number   1
_chemical_formula_structural   YScO3
_chemical_formula_sum   'Y6 Sc6 O18'
_cell_volume   411.73535098
_cell_formula_units_Z   6
loop_
 _symmetry_equiv_pos_site_id
 _symmetry_equiv_pos_as_xyz
  1  'x, y, z'
loop_
 _atom_site_type_symbol
 _atom_site_label
 _atom_site_symmetry_multiplicity
 _atom_site_fract_x
 _atom_site_fract_y
 _atom_site_fract_z
 _atom_site_occupancy
  Y  Y0  1  0.33333300  0.66666700  0.23568700  1
  Y  Y1  1  0.00000000  0.00000000  0.27520700  1
  Y  Y2  1  0.00000000  0.00000000  0.77520700  1
  Y  Y3  1  0.33333300  0.66666700  0.73568700  1
  Y  Y4  1  0.66666700  0.33333300  0.73568700  1
  Y  Y5  1  0.66666700  0.33333300  0.23568700  1
  Sc  Sc6  1  0.00000000  0.66618900  0.50188900  1
  Sc  Sc7  1  0.00000000  0.33381100  0.00188900  1
  Sc  Sc8  1  0.33381100  0.33381100  0.50188900  1
  Sc  Sc9  1  0.66618900  0.66618900  0.00188900  1
  Sc  Sc10  1  0.33381100  0.00000000  0.00188900  1
  Sc  Sc11  1  0.66618900  0.00000000  0.50188900  1
  O  O12  1  0.00000000  0.69204400  0.66931500  1
  O  O13  1  0.00000000  0.64109500  0.33579200  1
  O  O14  1  0.00000000  0.35890500  0.83579200  1
  O  O15  1  0.00000000  0.30795600  0.16931500  1
  O  O16  1  0.33333300  0.66666700  0.02184100  1
  O  O17  1  0.00000000  0.00000000  0.47638900  1
  O  O18  1  0.00000000  0.00000000  0.97638900  1
  O  O19  1  0.33333300  0.66666700  0.52184100  1
  O  O20  1  0.30795600  0.30795600  0.66931500  1
  O  O21  1  0.35890500  0.35890500  0.33579200  1
  O  O22  1  0.30795600  0.00000000  0.16931500  1
  O  O23  1  0.64109500  0.64109500  0.83579200  1
  O  O24  1  0.69204400  0.69204400  0.16931500  1
  O  O25  1  0.35890500  0.00000000  0.83579200  1
  O  O26  1  0.66666700  0.33333300  0.52184100  1
  O  O27  1  0.66666700  0.33333300  0.02184100  1
  O  O28  1  0.64109500  0.00000000  0.33579200  1
  O  O29  1  0.69204400  0.00000000  0.66931500  1
