# generated using pymatgen
data_K2Mg2O3
_symmetry_space_group_name_H-M   'P 1'
_cell_length_a   6.49053700
_cell_length_b   6.49053700
_cell_length_c   10.39352900
_cell_angle_alpha   90.00000000
_cell_angle_beta   90.00000000
_cell_angle_gamma   90.00000000
_symmetry_Int_Tables_number   1
_chemical_formula_structural   K2Mg2O3
_chemical_formula_sum   'K8 Mg8 O12'
_cell_volume   437.84892943
_cell_formula_units_Z   4
loop_
 _symmetry_equiv_pos_site_id
 _symmetry_equiv_pos_as_xyz
  1  'x, y, z'
loop_
 _atom_site_type_symbol
 _atom_site_label
 _atom_site_symmetry_multiplicity
 _atom_site_fract_x
 _atom_site_fract_y
 _atom_site_fract_z
 _atom_site_occupancy
  K  K0  1  0.93286500  0.73674400  0.36208300  1
  K  K1  1  0.26325600  0.06713500  0.13791700  1
  K  K2  1  0.23674400  0.56713500  0.61208300  1
  K  K3  1  0.56713500  0.23674400  0.38791700  1
  K  K4  1  0.43286500  0.76325600  0.88791700  1
  K  K5  1  0.76325600  0.43286500  0.11208300  1
  K  K6  1  0.73674400  0.93286500  0.63791700  1
  K  K7  1  0.06713500  0.26325600  0.86208300  1
  Mg  Mg8  1  0.92717300  0.77769600  0.88231400  1
  Mg  Mg9  1  0.22230400  0.07282700  0.61768600  1
  Mg  Mg10  1  0.27769600  0.57282700  0.13231400  1
  Mg  Mg11  1  0.57282700  0.27769600  0.86768600  1
  Mg  Mg12  1  0.42717300  0.72230400  0.36768600  1
  Mg  Mg13  1  0.72230400  0.42717300  0.63231400  1
  Mg  Mg14  1  0.77769600  0.92717300  0.11768600  1
  Mg  Mg15  1  0.07282700  0.22230400  0.38231400  1
  O  O16  1  0.97138900  0.26442800  0.56470100  1
  O  O17  1  0.38316800  0.38316800  0.00000000  1
  O  O18  1  0.23557200  0.47138900  0.31470100  1
  O  O19  1  0.26442800  0.97138900  0.43529900  1
  O  O20  1  0.11683200  0.88316800  0.75000000  1
  O  O21  1  0.52861100  0.76442800  0.18529900  1
  O  O22  1  0.47138900  0.23557200  0.68529900  1
  O  O23  1  0.88316800  0.11683200  0.25000000  1
  O  O24  1  0.73557200  0.02861100  0.93529900  1
  O  O25  1  0.76442800  0.52861100  0.81470100  1
  O  O26  1  0.61683200  0.61683200  0.50000000  1
  O  O27  1  0.02861100  0.73557200  0.06470100  1
