# generated using pymatgen
data_Si2Sn2O7
_symmetry_space_group_name_H-M   'P 1'
_cell_length_a   6.68387000
_cell_length_b   6.78906242
_cell_length_c   12.88335326
_cell_angle_alpha   80.98935446
_cell_angle_beta   85.38419255
_cell_angle_gamma   82.87128014
_symmetry_Int_Tables_number   1
_chemical_formula_structural   Si2Sn2O7
_chemical_formula_sum   'Si8 Sn8 O28'
_cell_volume   571.82045783
_cell_formula_units_Z   4
loop_
 _symmetry_equiv_pos_site_id
 _symmetry_equiv_pos_as_xyz
  1  'x, y, z'
loop_
 _atom_site_type_symbol
 _atom_site_label
 _atom_site_symmetry_multiplicity
 _atom_site_fract_x
 _atom_site_fract_y
 _atom_site_fract_z
 _atom_site_occupancy
  Si  Si0  1  0.85777800  0.61782700  0.62675200  1
  Si  Si1  1  0.92537800  0.19574900  0.12876600  1
  Si  Si2  1  0.64345100  0.71711300  0.42562400  1
  Si  Si3  1  0.55644000  0.69464300  0.19912500  1
  Si  Si4  1  0.44356000  0.30535700  0.80087500  1
  Si  Si5  1  0.35654900  0.28288700  0.57437600  1
  Si  Si6  1  0.07462200  0.80425100  0.87123400  1
  Si  Si7  1  0.14222200  0.38217300  0.37324800  1
  Sn  Sn8  1  0.92571500  0.32761400  0.86061600  1
  Sn  Sn9  1  0.84758500  0.08870600  0.65156000  1
  Sn  Sn10  1  0.57204200  0.77732900  0.88776200  1
  Sn  Sn11  1  0.65142100  0.23279900  0.35873500  1
  Sn  Sn12  1  0.34857900  0.76720100  0.64126500  1
  Sn  Sn13  1  0.42795800  0.22267100  0.11223800  1
  Sn  Sn14  1  0.15241500  0.91129400  0.34844000  1
  Sn  Sn15  1  0.07428500  0.67238600  0.13938400  1
  O  O16  1  0.03579600  0.97265800  0.17890300  1
  O  O17  1  0.91521300  0.64039500  0.86323600  1
  O  O18  1  0.95302700  0.25071600  0.37432900  1
  O  O19  1  0.90870200  0.39358800  0.69580100  1
  O  O20  1  0.72618100  0.93002100  0.37990800  1
  O  O21  1  0.85593100  0.20751500  0.01017400  1
  O  O22  1  0.65346300  0.74773600  0.67639700  1
  O  O23  1  0.80728300  0.59180500  0.50654000  1
  O  O24  1  0.76837900  0.69651300  0.12866300  1
  O  O25  1  0.71013300  0.24599000  0.19949500  1
  O  O26  1  0.60327800  0.42276300  0.85433300  1
  O  O27  1  0.56349900  0.09138400  0.77734300  1
  O  O28  1  0.61520600  0.57967800  0.32751600  1
  O  O29  1  0.57783600  0.25798700  0.51153000  1
  O  O30  1  0.42216400  0.74201300  0.48847000  1
  O  O31  1  0.38479400  0.42032200  0.67248400  1
  O  O32  1  0.43650100  0.90861600  0.22265700  1
  O  O33  1  0.39672200  0.57723700  0.14566700  1
  O  O34  1  0.28986700  0.75401000  0.80050500  1
  O  O35  1  0.23162100  0.30348700  0.87133700  1
  O  O36  1  0.19271700  0.40819500  0.49346000  1
  O  O37  1  0.34653700  0.25226400  0.32360300  1
  O  O38  1  0.14406900  0.79248500  0.98982600  1
  O  O39  1  0.27381900  0.06997900  0.62009200  1
  O  O40  1  0.09129800  0.60641200  0.30419900  1
  O  O41  1  0.04697300  0.74928400  0.62567100  1
  O  O42  1  0.08478700  0.35960500  0.13676400  1
  O  O43  1  0.96420400  0.02734200  0.82109700  1
