# generated using pymatgen
data_ScGaO3
_symmetry_space_group_name_H-M   'P 1'
_cell_length_a   5.79014778
_cell_length_b   5.79014778
_cell_length_c   11.57084400
_cell_angle_alpha   90.00000000
_cell_angle_beta   90.00000000
_cell_angle_gamma   119.99999743
_symmetry_Int_Tables_number   1
_chemical_formula_structural   ScGaO3
_chemical_formula_sum   'Sc6 Ga6 O18'
_cell_volume   335.95025653
_cell_formula_units_Z   6
loop_
 _symmetry_equiv_pos_site_id
 _symmetry_equiv_pos_as_xyz
  1  'x, y, z'
loop_
 _atom_site_type_symbol
 _atom_site_label
 _atom_site_symmetry_multiplicity
 _atom_site_fract_x
 _atom_site_fract_y
 _atom_site_fract_z
 _atom_site_occupancy
  Sc  Sc0  1  0.33333300  0.66666700  0.23676500  1
  Sc  Sc1  1  0.00000000  0.00000000  0.27568700  1
  Sc  Sc2  1  0.00000000  0.00000000  0.77568700  1
  Sc  Sc3  1  0.33333300  0.66666700  0.73676500  1
  Sc  Sc4  1  0.66666700  0.33333300  0.73676500  1
  Sc  Sc5  1  0.66666700  0.33333300  0.23676500  1
  Ga  Ga6  1  0.00000000  0.66589000  0.50294600  1
  Ga  Ga7  1  0.00000000  0.33411000  0.00294600  1
  Ga  Ga8  1  0.33411000  0.33411000  0.50294600  1
  Ga  Ga9  1  0.66589000  0.66589000  0.00294600  1
  Ga  Ga10  1  0.33411000  0.00000000  0.00294600  1
  Ga  Ga11  1  0.66589000  0.00000000  0.50294600  1
  O  O12  1  0.00000000  0.69620400  0.67089400  1
  O  O13  1  0.00000000  0.63581300  0.33790900  1
  O  O14  1  0.00000000  0.36418700  0.83790900  1
  O  O15  1  0.00000000  0.30379600  0.17089400  1
  O  O16  1  0.33333300  0.66666700  0.02800400  1
  O  O17  1  0.00000000  0.00000000  0.47434000  1
  O  O18  1  0.00000000  0.00000000  0.97434000  1
  O  O19  1  0.33333300  0.66666700  0.52800400  1
  O  O20  1  0.30379600  0.30379600  0.67089400  1
  O  O21  1  0.36418700  0.36418700  0.33790900  1
  O  O22  1  0.30379600  0.00000000  0.17089400  1
  O  O23  1  0.63581300  0.63581300  0.83790900  1
  O  O24  1  0.69620400  0.69620400  0.17089400  1
  O  O25  1  0.36418700  0.00000000  0.83790900  1
  O  O26  1  0.66666700  0.33333300  0.52800400  1
  O  O27  1  0.66666700  0.33333300  0.02800400  1
  O  O28  1  0.63581300  0.00000000  0.33790900  1
  O  O29  1  0.69620400  0.00000000  0.67089400  1
