# generated using pymatgen
data_SiGeO3
_symmetry_space_group_name_H-M   'P 1'
_cell_length_a   5.42094800
_cell_length_b   9.43247200
_cell_length_c   20.06184000
_cell_angle_alpha   90.00000000
_cell_angle_beta   90.00000000
_cell_angle_gamma   90.00000000
_symmetry_Int_Tables_number   1
_chemical_formula_structural   SiGeO3
_chemical_formula_sum   'Si16 Ge16 O48'
_cell_volume   1025.82086549
_cell_formula_units_Z   16
loop_
 _symmetry_equiv_pos_site_id
 _symmetry_equiv_pos_as_xyz
  1  'x, y, z'
loop_
 _atom_site_type_symbol
 _atom_site_label
 _atom_site_symmetry_multiplicity
 _atom_site_fract_x
 _atom_site_fract_y
 _atom_site_fract_z
 _atom_site_occupancy
  Si  Si0  1  0.73437600  0.34961400  0.00286700  1
  Si  Si1  1  0.23437600  0.15038600  0.00286700  1
  Si  Si2  1  0.51521800  0.34894100  0.24769100  1
  Si  Si3  1  0.01521800  0.15105900  0.24769100  1
  Si  Si4  1  0.51521800  0.84894100  0.25230900  1
  Si  Si5  1  0.01521800  0.65105900  0.25230900  1
  Si  Si6  1  0.73437600  0.84961400  0.49713300  1
  Si  Si7  1  0.23437600  0.65038600  0.49713300  1
  Si  Si8  1  0.76562400  0.34961400  0.50286700  1
  Si  Si9  1  0.26562400  0.15038600  0.50286700  1
  Si  Si10  1  0.98478200  0.34894100  0.74769100  1
  Si  Si11  1  0.48478200  0.15105900  0.74769100  1
  Si  Si12  1  0.98478200  0.84894100  0.75230900  1
  Si  Si13  1  0.48478200  0.65105900  0.75230900  1
  Si  Si14  1  0.76562400  0.84961400  0.99713300  1
  Si  Si15  1  0.26562400  0.65038600  0.99713300  1
  Ge  Ge16  1  0.63303000  0.08459700  0.12478900  1
  Ge  Ge17  1  0.13303000  0.41540300  0.12478900  1
  Ge  Ge18  1  0.62921300  0.59812800  0.12539100  1
  Ge  Ge19  1  0.12921300  0.90187200  0.12539100  1
  Ge  Ge20  1  0.12921300  0.40187200  0.37460900  1
  Ge  Ge21  1  0.62921300  0.09812800  0.37460900  1
  Ge  Ge22  1  0.13303000  0.91540300  0.37521100  1
  Ge  Ge23  1  0.63303000  0.58459700  0.37521100  1
  Ge  Ge24  1  0.36697000  0.41540300  0.62478900  1
  Ge  Ge25  1  0.86697000  0.08459700  0.62478900  1
  Ge  Ge26  1  0.37078700  0.90187200  0.62539100  1
  Ge  Ge27  1  0.87078700  0.59812800  0.62539100  1
  Ge  Ge28  1  0.37078700  0.40187200  0.87460900  1
  Ge  Ge29  1  0.87078700  0.09812800  0.87460900  1
  Ge  Ge30  1  0.36697000  0.91540300  0.87521100  1
  Ge  Ge31  1  0.86697000  0.58459700  0.87521100  1
  O  O32  1  0.97090100  0.23855400  0.00552200  1
  O  O33  1  0.47090100  0.26144600  0.00552200  1
  O  O34  1  0.78400500  0.93677800  0.06776300  1
  O  O35  1  0.28400500  0.56322200  0.06776300  1
  O  O36  1  0.77884200  0.45475100  0.06671500  1
  O  O37  1  0.27884200  0.04524900  0.06671500  1
  O  O38  1  0.48453400  0.94046600  0.18340500  1
  O  O39  1  0.98453400  0.55953400  0.18340500  1
  O  O40  1  0.98024600  0.05112500  0.18142700  1
  O  O41  1  0.48024600  0.44887500  0.18142700  1
  O  O42  1  0.78087700  0.26398300  0.24564800  1
  O  O43  1  0.28087700  0.23601700  0.24564800  1
  O  O44  1  0.28087700  0.73601700  0.25435200  1
  O  O45  1  0.78087700  0.76398300  0.25435200  1
  O  O46  1  0.98024600  0.55112500  0.31857300  1
  O  O47  1  0.48024600  0.94887500  0.31857300  1
  O  O48  1  0.48453400  0.44046600  0.31659500  1
  O  O49  1  0.98453400  0.05953400  0.31659500  1
  O  O50  1  0.77884200  0.95475100  0.43328500  1
  O  O51  1  0.27884200  0.54524900  0.43328500  1
  O  O52  1  0.78400500  0.43677800  0.43223700  1
  O  O53  1  0.28400500  0.06322200  0.43223700  1
  O  O54  1  0.47090100  0.76144600  0.49447800  1
  O  O55  1  0.97090100  0.73855400  0.49447800  1
  O  O56  1  0.02909900  0.26144600  0.50552200  1
  O  O57  1  0.52909900  0.23855400  0.50552200  1
  O  O58  1  0.71599500  0.93677800  0.56776300  1
  O  O59  1  0.21599500  0.56322200  0.56776300  1
  O  O60  1  0.72115800  0.45475100  0.56671500  1
  O  O61  1  0.22115800  0.04524900  0.56671500  1
  O  O62  1  0.01546600  0.94046600  0.68340500  1
  O  O63  1  0.51546600  0.55953400  0.68340500  1
  O  O64  1  0.51975400  0.05112500  0.68142700  1
  O  O65  1  0.01975400  0.44887500  0.68142700  1
  O  O66  1  0.21912300  0.23601700  0.74564800  1
  O  O67  1  0.71912300  0.26398300  0.74564800  1
  O  O68  1  0.21912300  0.73601700  0.75435200  1
  O  O69  1  0.71912300  0.76398300  0.75435200  1
  O  O70  1  0.51975400  0.55112500  0.81857300  1
  O  O71  1  0.01975400  0.94887500  0.81857300  1
  O  O72  1  0.01546600  0.44046600  0.81659500  1
  O  O73  1  0.51546600  0.05953400  0.81659500  1
  O  O74  1  0.72115800  0.95475100  0.93328500  1
  O  O75  1  0.22115800  0.54524900  0.93328500  1
  O  O76  1  0.71599500  0.43677800  0.93223700  1
  O  O77  1  0.21599500  0.06322200  0.93223700  1
  O  O78  1  0.02909900  0.76144600  0.99447800  1
  O  O79  1  0.52909900  0.73855400  0.99447800  1
