# generated using pymatgen
data_Sr4Ta2O9
_symmetry_space_group_name_H-M   'P 1'
_cell_length_a   5.81199300
_cell_length_b   10.22895600
_cell_length_c   17.90492959
_cell_angle_alpha   55.97932219
_cell_angle_beta   90.00000000
_cell_angle_gamma   90.00000000
_symmetry_Int_Tables_number   1
_chemical_formula_structural   Sr4Ta2O9
_chemical_formula_sum   'Sr16 Ta8 O36'
_cell_volume   882.26177613
_cell_formula_units_Z   4
loop_
 _symmetry_equiv_pos_site_id
 _symmetry_equiv_pos_as_xyz
  1  'x, y, z'
loop_
 _atom_site_type_symbol
 _atom_site_label
 _atom_site_symmetry_multiplicity
 _atom_site_fract_x
 _atom_site_fract_y
 _atom_site_fract_z
 _atom_site_occupancy
  Sr  Sr0  1  0.00000000  0.50000000  0.50000000  1
  Sr  Sr1  1  0.00000000  0.00000000  0.00000000  1
  Sr  Sr2  1  0.00036900  0.77751900  0.23379400  1
  Sr  Sr3  1  0.48306100  0.54857500  0.60389100  1
  Sr  Sr4  1  0.51446100  0.11297700  0.07648100  1
  Sr  Sr5  1  0.01446100  0.88702300  0.42351900  1
  Sr  Sr6  1  0.98306100  0.45142500  0.89610900  1
  Sr  Sr7  1  0.50036900  0.22248100  0.26620600  1
  Sr  Sr8  1  0.50000000  0.00000000  0.50000000  1
  Sr  Sr9  1  0.49963100  0.77751900  0.73379400  1
  Sr  Sr10  1  0.50000000  0.50000000  0.00000000  1
  Sr  Sr11  1  0.01693900  0.54857500  0.10389100  1
  Sr  Sr12  1  0.98553900  0.11297700  0.57648100  1
  Sr  Sr13  1  0.48553900  0.88702300  0.92351900  1
  Sr  Sr14  1  0.51693900  0.45142500  0.39610900  1
  Sr  Sr15  1  0.99963100  0.22248100  0.76620600  1
  Ta  Ta16  1  0.49192000  0.32966700  0.83282000  1
  Ta  Ta17  1  0.50923300  0.83531500  0.33263400  1
  Ta  Ta18  1  0.99192000  0.67033300  0.66718000  1
  Ta  Ta19  1  0.00923300  0.16468500  0.16736600  1
  Ta  Ta20  1  0.99076700  0.83531500  0.83263400  1
  Ta  Ta21  1  0.00808000  0.32966700  0.33282000  1
  Ta  Ta22  1  0.49076700  0.16468500  0.66736600  1
  Ta  Ta23  1  0.50808000  0.67033300  0.16718000  1
  O  O24  1  0.56900300  0.26799100  0.73916500  1
  O  O25  1  0.31957900  0.13594600  0.89595400  1
  O  O26  1  0.78242200  0.70275900  0.37254500  1
  O  O27  1  0.32956900  0.67938600  0.43600400  1
  O  O28  1  0.77384500  0.23488700  0.89970800  1
  O  O29  1  0.10102300  0.06258000  0.10788500  1
  O  O30  1  0.90117200  0.61522900  0.58383100  1
  O  O31  1  0.21033000  0.46359800  0.75096500  1
  O  O32  1  0.72318500  0.01807200  0.22323400  1
  O  O33  1  0.22318500  0.98192800  0.27676600  1
  O  O34  1  0.71033000  0.53640200  0.74903500  1
  O  O35  1  0.40117200  0.38477100  0.91616900  1
  O  O36  1  0.60102300  0.93742000  0.39211500  1
  O  O37  1  0.27384500  0.76511300  0.60029200  1
  O  O38  1  0.82956900  0.32061400  0.06399600  1
  O  O39  1  0.28242200  0.29724100  0.12745500  1
  O  O40  1  0.81957900  0.86405400  0.60404600  1
  O  O41  1  0.06900300  0.73200900  0.76083500  1
  O  O42  1  0.93099700  0.26799100  0.23916500  1
  O  O43  1  0.18042100  0.13594600  0.39595400  1
  O  O44  1  0.71757800  0.70275900  0.87254500  1
  O  O45  1  0.17043100  0.67938600  0.93600400  1
  O  O46  1  0.72615500  0.23488700  0.39970800  1
  O  O47  1  0.39897700  0.06258000  0.60788500  1
  O  O48  1  0.59882800  0.61522900  0.08383100  1
  O  O49  1  0.28967000  0.46359800  0.25096500  1
  O  O50  1  0.77681500  0.01807200  0.72323400  1
  O  O51  1  0.27681500  0.98192800  0.77676600  1
  O  O52  1  0.78967000  0.53640200  0.24903500  1
  O  O53  1  0.09882800  0.38477100  0.41616900  1
  O  O54  1  0.89897700  0.93742000  0.89211500  1
  O  O55  1  0.22615500  0.76511300  0.10029200  1
  O  O56  1  0.67043100  0.32061400  0.56399600  1
  O  O57  1  0.21757800  0.29724100  0.62745500  1
  O  O58  1  0.68042100  0.86405400  0.10404600  1
  O  O59  1  0.43099700  0.73200900  0.26083500  1
