# generated using pymatgen
data_Sr4Ta2O9
_symmetry_space_group_name_H-M   'P 1'
_cell_length_a   5.94614421
_cell_length_b   5.94614421
_cell_length_c   15.38652000
_cell_angle_alpha   90.00000000
_cell_angle_beta   90.00000000
_cell_angle_gamma   120.00000233
_symmetry_Int_Tables_number   1
_chemical_formula_structural   Sr4Ta2O9
_chemical_formula_sum   'Sr8 Ta4 O18'
_cell_volume   471.13124009
_cell_formula_units_Z   2
loop_
 _symmetry_equiv_pos_site_id
 _symmetry_equiv_pos_as_xyz
  1  'x, y, z'
loop_
 _atom_site_type_symbol
 _atom_site_label
 _atom_site_symmetry_multiplicity
 _atom_site_fract_x
 _atom_site_fract_y
 _atom_site_fract_z
 _atom_site_occupancy
  Sr  Sr0  1  0.33333300  0.66666700  0.52781000  1
  Sr  Sr1  1  0.33333300  0.66666700  0.80105200  1
  Sr  Sr2  1  0.33333300  0.66666700  0.30105200  1
  Sr  Sr3  1  0.33333300  0.66666700  0.02781000  1
  Sr  Sr4  1  0.66666700  0.33333300  0.69894800  1
  Sr  Sr5  1  0.66666700  0.33333300  0.19894800  1
  Sr  Sr6  1  0.66666700  0.33333300  0.97219000  1
  Sr  Sr7  1  0.66666700  0.33333300  0.47219000  1
  Ta  Ta8  1  0.00000000  0.00000000  0.64951900  1
  Ta  Ta9  1  0.00000000  0.00000000  0.85048100  1
  Ta  Ta10  1  0.00000000  0.00000000  0.14951900  1
  Ta  Ta11  1  0.00000000  0.00000000  0.35048100  1
  O  O12  1  0.00000000  0.75159700  0.25000000  1
  O  O13  1  0.03985800  0.73055300  0.90710000  1
  O  O14  1  0.26944700  0.96014200  0.40710000  1
  O  O15  1  0.03985800  0.30930500  0.40710000  1
  O  O16  1  0.00000000  0.24840300  0.75000000  1
  O  O17  1  0.24840300  0.24840300  0.25000000  1
  O  O18  1  0.26944700  0.30930500  0.90710000  1
  O  O19  1  0.69069500  0.96014200  0.90710000  1
  O  O20  1  0.30930500  0.26944700  0.59290000  1
  O  O21  1  0.24840300  0.00000000  0.75000000  1
  O  O22  1  0.69069500  0.73055300  0.40710000  1
  O  O23  1  0.30930500  0.03985800  0.09290000  1
  O  O24  1  0.73055300  0.69069500  0.09290000  1
  O  O25  1  0.75159700  0.75159700  0.75000000  1
  O  O26  1  0.96014200  0.69069500  0.59290000  1
  O  O27  1  0.73055300  0.03985800  0.59290000  1
  O  O28  1  0.75159700  0.00000000  0.25000000  1
  O  O29  1  0.96014200  0.26944700  0.09290000  1
