# generated using pymatgen
data_Sr4Ta2O9
_symmetry_space_group_name_H-M   'P 1'
_cell_length_a   5.98063900
_cell_length_b   10.35812700
_cell_length_c   15.30601300
_cell_angle_alpha   90.00000000
_cell_angle_beta   90.00000000
_cell_angle_gamma   90.00000000
_symmetry_Int_Tables_number   1
_chemical_formula_structural   Sr4Ta2O9
_chemical_formula_sum   'Sr16 Ta8 O36'
_cell_volume   948.18023467
_cell_formula_units_Z   4
loop_
 _symmetry_equiv_pos_site_id
 _symmetry_equiv_pos_as_xyz
  1  'x, y, z'
loop_
 _atom_site_type_symbol
 _atom_site_label
 _atom_site_symmetry_multiplicity
 _atom_site_fract_x
 _atom_site_fract_y
 _atom_site_fract_z
 _atom_site_occupancy
  Sr  Sr0  1  0.49322600  0.83542700  0.29041700  1
  Sr  Sr1  1  0.49322600  0.16457300  0.20958300  1
  Sr  Sr2  1  0.48523700  0.16421900  0.48411800  1
  Sr  Sr3  1  0.48523700  0.83578100  0.01588200  1
  Sr  Sr4  1  0.01476300  0.66421900  0.51588200  1
  Sr  Sr5  1  0.01476300  0.33578100  0.98411800  1
  Sr  Sr6  1  0.00677400  0.33542700  0.70958300  1
  Sr  Sr7  1  0.00677400  0.66457300  0.79041700  1
  Sr  Sr8  1  0.99322600  0.33542700  0.20958300  1
  Sr  Sr9  1  0.99322600  0.66457300  0.29041700  1
  Sr  Sr10  1  0.98523700  0.66421900  0.01588200  1
  Sr  Sr11  1  0.98523700  0.33578100  0.48411800  1
  Sr  Sr12  1  0.51476300  0.16421900  0.98411800  1
  Sr  Sr13  1  0.51476300  0.83578100  0.51588200  1
  Sr  Sr14  1  0.50677400  0.16457300  0.70958300  1
  Sr  Sr15  1  0.50677400  0.83542700  0.79041700  1
  Ta  Ta16  1  0.49558100  0.50097600  0.14963300  1
  Ta  Ta17  1  0.49558100  0.49902400  0.35036700  1
  Ta  Ta18  1  0.00441900  0.99902400  0.64963300  1
  Ta  Ta19  1  0.00441900  0.00097600  0.85036700  1
  Ta  Ta20  1  0.99558100  0.00097600  0.35036700  1
  Ta  Ta21  1  0.99558100  0.99902400  0.14963300  1
  Ta  Ta22  1  0.50441900  0.50097600  0.64963300  1
  Ta  Ta23  1  0.50441900  0.49902400  0.85036700  1
  O  O24  1  0.38243900  0.62413000  0.74626900  1
  O  O25  1  0.38243900  0.37587000  0.75373100  1
  O  O26  1  0.35321400  0.64012900  0.08955500  1
  O  O27  1  0.35321400  0.35987100  0.41044500  1
  O  O28  1  0.29033300  0.98653500  0.40369900  1
  O  O29  1  0.29033300  0.01346500  0.09630100  1
  O  O30  1  0.34165700  0.65179900  0.39968600  1
  O  O31  1  0.34165700  0.34820100  0.10031400  1
  O  O32  1  0.25045100  0.00000000  0.75000000  1
  O  O33  1  0.24954900  0.50000000  0.25000000  1
  O  O34  1  0.15834300  0.84820100  0.89968600  1
  O  O35  1  0.15834300  0.15179900  0.60031400  1
  O  O36  1  0.20966700  0.48653500  0.59630100  1
  O  O37  1  0.20966700  0.51346500  0.90369900  1
  O  O38  1  0.14678600  0.85987100  0.58955500  1
  O  O39  1  0.14678600  0.14012900  0.91044500  1
  O  O40  1  0.11756100  0.87587000  0.24626900  1
  O  O41  1  0.11756100  0.12413000  0.25373100  1
  O  O42  1  0.88243900  0.12413000  0.75373100  1
  O  O43  1  0.88243900  0.87587000  0.74626900  1
  O  O44  1  0.85321400  0.14012900  0.41044500  1
  O  O45  1  0.85321400  0.85987100  0.08955500  1
  O  O46  1  0.79033300  0.51346500  0.40369900  1
  O  O47  1  0.79033300  0.48653500  0.09630100  1
  O  O48  1  0.84165700  0.84820100  0.39968600  1
  O  O49  1  0.84165700  0.15179900  0.10031400  1
  O  O50  1  0.75045100  0.50000000  0.75000000  1
  O  O51  1  0.74954900  0.00000000  0.25000000  1
  O  O52  1  0.65834300  0.65179900  0.89968600  1
  O  O53  1  0.65834300  0.34820100  0.60031400  1
  O  O54  1  0.70966700  0.98653500  0.90369900  1
  O  O55  1  0.70966700  0.01346500  0.59630100  1
  O  O56  1  0.64678600  0.64012900  0.58955500  1
  O  O57  1  0.64678600  0.35987100  0.91044500  1
  O  O58  1  0.61756100  0.62413000  0.24626900  1
  O  O59  1  0.61756100  0.37587000  0.25373100  1
