# generated using pymatgen
data_Ca4Ta2O9
_symmetry_space_group_name_H-M   'P 1'
_cell_length_a   5.69076700
_cell_length_b   9.83352500
_cell_length_c   14.94847800
_cell_angle_alpha   90.00000000
_cell_angle_beta   90.00000000
_cell_angle_gamma   90.00000000
_symmetry_Int_Tables_number   1
_chemical_formula_structural   Ca4Ta2O9
_chemical_formula_sum   'Ca16 Ta8 O36'
_cell_volume   836.52130690
_cell_formula_units_Z   4
loop_
 _symmetry_equiv_pos_site_id
 _symmetry_equiv_pos_as_xyz
  1  'x, y, z'
loop_
 _atom_site_type_symbol
 _atom_site_label
 _atom_site_symmetry_multiplicity
 _atom_site_fract_x
 _atom_site_fract_y
 _atom_site_fract_z
 _atom_site_occupancy
  Ca  Ca0  1  0.49422000  0.83611400  0.29735600  1
  Ca  Ca1  1  0.49422000  0.16388600  0.20264400  1
  Ca  Ca2  1  0.48843700  0.16410900  0.48755500  1
  Ca  Ca3  1  0.48843700  0.83589100  0.01244500  1
  Ca  Ca4  1  0.01156300  0.66410900  0.51244500  1
  Ca  Ca5  1  0.01156300  0.33589100  0.98755500  1
  Ca  Ca6  1  0.00578000  0.33611400  0.70264400  1
  Ca  Ca7  1  0.00578000  0.66388600  0.79735600  1
  Ca  Ca8  1  0.99422000  0.33611400  0.20264400  1
  Ca  Ca9  1  0.99422000  0.66388600  0.29735600  1
  Ca  Ca10  1  0.98843700  0.66410900  0.01244500  1
  Ca  Ca11  1  0.98843700  0.33589100  0.48755500  1
  Ca  Ca12  1  0.51156300  0.83589100  0.51244500  1
  Ca  Ca13  1  0.51156300  0.16410900  0.98755500  1
  Ca  Ca14  1  0.50578000  0.16388600  0.70264400  1
  Ca  Ca15  1  0.50578000  0.83611400  0.79735600  1
  Ta  Ta16  1  0.49675300  0.50524700  0.14732800  1
  Ta  Ta17  1  0.49675300  0.49475300  0.35267200  1
  Ta  Ta18  1  0.00324700  0.99475300  0.64732800  1
  Ta  Ta19  1  0.00324700  0.00524700  0.85267200  1
  Ta  Ta20  1  0.99675300  0.00524700  0.35267200  1
  Ta  Ta21  1  0.99675300  0.99475300  0.14732800  1
  Ta  Ta22  1  0.50324700  0.50524700  0.64732800  1
  Ta  Ta23  1  0.50324700  0.49475300  0.85267200  1
  O  O24  1  0.37432400  0.63151400  0.74705100  1
  O  O25  1  0.37432400  0.36848600  0.75294900  1
  O  O26  1  0.34792900  0.35209800  0.41601900  1
  O  O27  1  0.34792900  0.64790200  0.08398100  1
  O  O28  1  0.30472000  0.98736500  0.40750000  1
  O  O29  1  0.30472000  0.01263500  0.09250000  1
  O  O30  1  0.33435300  0.65765400  0.40178900  1
  O  O31  1  0.33435300  0.34234600  0.09821100  1
  O  O32  1  0.26285400  0.00000000  0.75000000  1
  O  O33  1  0.23714600  0.50000000  0.25000000  1
  O  O34  1  0.16564700  0.84234600  0.90178900  1
  O  O35  1  0.16564700  0.15765400  0.59821100  1
  O  O36  1  0.19528000  0.48736500  0.59250000  1
  O  O37  1  0.19528000  0.51263500  0.90750000  1
  O  O38  1  0.15207100  0.85209800  0.58398100  1
  O  O39  1  0.15207100  0.14790200  0.91601900  1
  O  O40  1  0.12567600  0.86848600  0.24705100  1
  O  O41  1  0.12567600  0.13151400  0.25294900  1
  O  O42  1  0.87432400  0.13151400  0.75294900  1
  O  O43  1  0.87432400  0.86848600  0.74705100  1
  O  O44  1  0.84792900  0.14790200  0.41601900  1
  O  O45  1  0.84792900  0.85209800  0.08398100  1
  O  O46  1  0.80472000  0.51263500  0.40750000  1
  O  O47  1  0.80472000  0.48736500  0.09250000  1
  O  O48  1  0.83435300  0.84234600  0.40178900  1
  O  O49  1  0.83435300  0.15765400  0.09821100  1
  O  O50  1  0.76285400  0.50000000  0.75000000  1
  O  O51  1  0.73714600  0.00000000  0.25000000  1
  O  O52  1  0.66564700  0.65765400  0.90178900  1
  O  O53  1  0.66564700  0.34234600  0.59821100  1
  O  O54  1  0.69528000  0.98736500  0.90750000  1
  O  O55  1  0.69528000  0.01263500  0.59250000  1
  O  O56  1  0.65207100  0.64790200  0.58398100  1
  O  O57  1  0.65207100  0.35209800  0.91601900  1
  O  O58  1  0.62567600  0.63151400  0.24705100  1
  O  O59  1  0.62567600  0.36848600  0.25294900  1
