# generated using pymatgen
data_Ca4Ta2O9
_symmetry_space_group_name_H-M   'P 1'
_cell_length_a   5.66773209
_cell_length_b   5.66773209
_cell_length_c   14.92345000
_cell_angle_alpha   90.00000000
_cell_angle_beta   90.00000000
_cell_angle_gamma   120.00000107
_symmetry_Int_Tables_number   1
_chemical_formula_structural   Ca4Ta2O9
_chemical_formula_sum   'Ca8 Ta4 O18'
_cell_volume   415.16285383
_cell_formula_units_Z   2
loop_
 _symmetry_equiv_pos_site_id
 _symmetry_equiv_pos_as_xyz
  1  'x, y, z'
loop_
 _atom_site_type_symbol
 _atom_site_label
 _atom_site_symmetry_multiplicity
 _atom_site_fract_x
 _atom_site_fract_y
 _atom_site_fract_z
 _atom_site_occupancy
  Ca  Ca0  1  0.33333300  0.66666700  0.02304200  1
  Ca  Ca1  1  0.33333300  0.66666700  0.30455800  1
  Ca  Ca2  1  0.33333300  0.66666700  0.80455800  1
  Ca  Ca3  1  0.33333300  0.66666700  0.52304200  1
  Ca  Ca4  1  0.66666700  0.33333300  0.19544200  1
  Ca  Ca5  1  0.66666700  0.33333300  0.69544200  1
  Ca  Ca6  1  0.66666700  0.33333300  0.47695800  1
  Ca  Ca7  1  0.66666700  0.33333300  0.97695800  1
  Ta  Ta8  1  0.00000000  0.00000000  0.14721600  1
  Ta  Ta9  1  0.00000000  0.00000000  0.35278400  1
  Ta  Ta10  1  0.00000000  0.00000000  0.64721600  1
  Ta  Ta11  1  0.00000000  0.00000000  0.85278400  1
  O  O12  1  0.00000000  0.73825000  0.75000000  1
  O  O13  1  0.03641600  0.71414000  0.41036000  1
  O  O14  1  0.28586000  0.96358400  0.91036000  1
  O  O15  1  0.03641600  0.32227500  0.91036000  1
  O  O16  1  0.00000000  0.26175000  0.25000000  1
  O  O17  1  0.26175000  0.26175000  0.75000000  1
  O  O18  1  0.28586000  0.32227500  0.41036000  1
  O  O19  1  0.67772500  0.96358400  0.41036000  1
  O  O20  1  0.32227500  0.28586000  0.08964000  1
  O  O21  1  0.26175000  0.00000000  0.25000000  1
  O  O22  1  0.67772500  0.71414000  0.91036000  1
  O  O23  1  0.32227500  0.03641600  0.58964000  1
  O  O24  1  0.71414000  0.67772500  0.58964000  1
  O  O25  1  0.73825000  0.73825000  0.25000000  1
  O  O26  1  0.96358400  0.67772500  0.08964000  1
  O  O27  1  0.71414000  0.03641600  0.08964000  1
  O  O28  1  0.73825000  0.00000000  0.75000000  1
  O  O29  1  0.96358400  0.28586000  0.58964000  1
