# generated using pymatgen
data_Ba4Ta2O9
_symmetry_space_group_name_H-M   'P 1'
_cell_length_a   6.08987800
_cell_length_b   10.57127600
_cell_length_c   18.90259465
_cell_angle_alpha   56.09618631
_cell_angle_beta   90.00000000
_cell_angle_gamma   90.00000000
_symmetry_Int_Tables_number   1
_chemical_formula_structural   Ba4Ta2O9
_chemical_formula_sum   'Ba16 Ta8 O36'
_cell_volume   1010.00266499
_cell_formula_units_Z   4
loop_
 _symmetry_equiv_pos_site_id
 _symmetry_equiv_pos_as_xyz
  1  'x, y, z'
loop_
 _atom_site_type_symbol
 _atom_site_label
 _atom_site_symmetry_multiplicity
 _atom_site_fract_x
 _atom_site_fract_y
 _atom_site_fract_z
 _atom_site_occupancy
  Ba  Ba0  1  0.00000000  0.50000000  0.50000000  1
  Ba  Ba1  1  0.00000000  0.00000000  0.00000000  1
  Ba  Ba2  1  0.00657900  0.75978300  0.24218200  1
  Ba  Ba3  1  0.48739200  0.55286900  0.60324000  1
  Ba  Ba4  1  0.50908100  0.08983400  0.09075300  1
  Ba  Ba5  1  0.00908100  0.91016600  0.40924700  1
  Ba  Ba6  1  0.98739200  0.44713100  0.89676000  1
  Ba  Ba7  1  0.50657900  0.24021700  0.25781800  1
  Ba  Ba8  1  0.50000000  0.00000000  0.50000000  1
  Ba  Ba9  1  0.49342100  0.75978300  0.74218200  1
  Ba  Ba10  1  0.50000000  0.50000000  0.00000000  1
  Ba  Ba11  1  0.01260800  0.55286900  0.10324000  1
  Ba  Ba12  1  0.99091900  0.08983400  0.59075300  1
  Ba  Ba13  1  0.49091900  0.91016600  0.90924700  1
  Ba  Ba14  1  0.51260800  0.44713100  0.39676000  1
  Ba  Ba15  1  0.99342100  0.24021700  0.75781800  1
  Ta  Ta16  1  0.49370600  0.33371200  0.83042100  1
  Ta  Ta17  1  0.51002300  0.83873800  0.32944000  1
  Ta  Ta18  1  0.99370600  0.66628800  0.66957900  1
  Ta  Ta19  1  0.01002300  0.16126200  0.17056000  1
  Ta  Ta20  1  0.98997700  0.83873800  0.82944000  1
  Ta  Ta21  1  0.00629400  0.33371200  0.33042100  1
  Ta  Ta22  1  0.48997700  0.16126200  0.67056000  1
  Ta  Ta23  1  0.50629400  0.66628800  0.16957900  1
  O  O24  1  0.54101400  0.25813600  0.74438500  1
  O  O25  1  0.30918400  0.15678700  0.89235600  1
  O  O26  1  0.76509200  0.70582200  0.37567300  1
  O  O27  1  0.32118700  0.68946600  0.42013000  1
  O  O28  1  0.75549400  0.22978800  0.89468800  1
  O  O29  1  0.07756300  0.06624800  0.11042500  1
  O  O30  1  0.92646200  0.59675000  0.59672000  1
  O  O31  1  0.22675100  0.47775200  0.75070200  1
  O  O32  1  0.74175100  0.01243300  0.23231800  1
  O  O33  1  0.24175100  0.98756700  0.26768200  1
  O  O34  1  0.72675100  0.52224800  0.74929800  1
  O  O35  1  0.42646200  0.40325000  0.90328000  1
  O  O36  1  0.57756300  0.93375200  0.38957500  1
  O  O37  1  0.25549400  0.77021200  0.60531200  1
  O  O38  1  0.82118700  0.31053400  0.07987000  1
  O  O39  1  0.26509200  0.29417800  0.12432700  1
  O  O40  1  0.80918400  0.84321300  0.60764400  1
  O  O41  1  0.04101400  0.74186400  0.75561500  1
  O  O42  1  0.95898600  0.25813600  0.24438500  1
  O  O43  1  0.19081600  0.15678700  0.39235600  1
  O  O44  1  0.73490800  0.70582200  0.87567300  1
  O  O45  1  0.17881300  0.68946600  0.92013000  1
  O  O46  1  0.74450600  0.22978800  0.39468800  1
  O  O47  1  0.42243700  0.06624800  0.61042500  1
  O  O48  1  0.57353800  0.59675000  0.09672000  1
  O  O49  1  0.27324900  0.47775200  0.25070200  1
  O  O50  1  0.75824900  0.01243300  0.73231800  1
  O  O51  1  0.25824900  0.98756700  0.76768200  1
  O  O52  1  0.77324900  0.52224800  0.24929800  1
  O  O53  1  0.07353800  0.40325000  0.40328000  1
  O  O54  1  0.92243700  0.93375200  0.88957500  1
  O  O55  1  0.24450600  0.77021200  0.10531200  1
  O  O56  1  0.67881300  0.31053400  0.57987000  1
  O  O57  1  0.23490800  0.29417800  0.62432700  1
  O  O58  1  0.69081600  0.84321300  0.10764400  1
  O  O59  1  0.45898600  0.74186400  0.25561500  1
