# generated using pymatgen
data_MgSO3
_symmetry_space_group_name_H-M   'P 1'
_cell_length_a   11.99190000
_cell_length_b   5.34505200
_cell_length_c   8.09343528
_cell_angle_alpha   80.11213058
_cell_angle_beta   90.00000000
_cell_angle_gamma   90.00000000
_symmetry_Int_Tables_number   1
_chemical_formula_structural   MgSO3
_chemical_formula_sum   'Mg8 S8 O24'
_cell_volume   511.06165748
_cell_formula_units_Z   8
loop_
 _symmetry_equiv_pos_site_id
 _symmetry_equiv_pos_as_xyz
  1  'x, y, z'
loop_
 _atom_site_type_symbol
 _atom_site_label
 _atom_site_symmetry_multiplicity
 _atom_site_fract_x
 _atom_site_fract_y
 _atom_site_fract_z
 _atom_site_occupancy
  Mg  Mg0  1  0.42128000  0.33133600  0.88192200  1
  Mg  Mg1  1  0.75623600  0.12051900  0.84620300  1
  Mg  Mg2  1  0.25623600  0.87948100  0.65379700  1
  Mg  Mg3  1  0.92128000  0.66866400  0.61807800  1
  Mg  Mg4  1  0.07872000  0.33133600  0.38192200  1
  Mg  Mg5  1  0.74376400  0.12051900  0.34620300  1
  Mg  Mg6  1  0.24376400  0.87948100  0.15379700  1
  Mg  Mg7  1  0.57872000  0.66866400  0.11807800  1
  S  S8  1  0.17388000  0.47538500  0.98448000  1
  S  S9  1  0.52141500  0.91166100  0.74284300  1
  S  S10  1  0.02141500  0.08833900  0.75715700  1
  S  S11  1  0.67388000  0.52461500  0.51552000  1
  S  S12  1  0.32612000  0.47538500  0.48448000  1
  S  S13  1  0.97858500  0.91166100  0.24284300  1
  S  S14  1  0.47858500  0.08833900  0.25715700  1
  S  S15  1  0.82612000  0.52461500  0.01552000  1
  O  O16  1  0.26144700  0.25594100  0.99856800  1
  O  O17  1  0.24218700  0.72101700  0.91862200  1
  O  O18  1  0.51765400  0.66181300  0.87184900  1
  O  O19  1  0.84393500  0.47487900  0.83366400  1
  O  O20  1  0.90214700  0.97344400  0.76043200  1
  O  O21  1  0.58172900  0.09771400  0.84284300  1
  O  O22  1  0.08172900  0.90228600  0.65715700  1
  O  O23  1  0.40214700  0.02655600  0.73956800  1
  O  O24  1  0.34393500  0.52512100  0.66633600  1
  O  O25  1  0.01765400  0.33818700  0.62815100  1
  O  O26  1  0.74218700  0.27898300  0.58137800  1
  O  O27  1  0.76144700  0.74405900  0.50143200  1
  O  O28  1  0.23855300  0.25594100  0.49856800  1
  O  O29  1  0.25781300  0.72101700  0.41862200  1
  O  O30  1  0.98234600  0.66181300  0.37184900  1
  O  O31  1  0.65606500  0.47487900  0.33366400  1
  O  O32  1  0.59785300  0.97344400  0.26043200  1
  O  O33  1  0.91827100  0.09771400  0.34284300  1
  O  O34  1  0.41827100  0.90228600  0.15715700  1
  O  O35  1  0.09785300  0.02655600  0.23956800  1
  O  O36  1  0.15606500  0.52512100  0.16633600  1
  O  O37  1  0.48234600  0.33818700  0.12815100  1
  O  O38  1  0.75781300  0.27898300  0.08137800  1
  O  O39  1  0.73855300  0.74405900  0.00143200  1
