# generated using pymatgen
data_ZnSeO4
_symmetry_space_group_name_H-M   'P 1'
_cell_length_a   5.80977600
_cell_length_b   7.09942900
_cell_length_c   7.20527700
_cell_angle_alpha   90.00000000
_cell_angle_beta   90.00000000
_cell_angle_gamma   90.00000000
_symmetry_Int_Tables_number   1
_chemical_formula_structural   ZnSeO4
_chemical_formula_sum   'Zn4 Se4 O16'
_cell_volume   297.18951960
_cell_formula_units_Z   4
loop_
 _symmetry_equiv_pos_site_id
 _symmetry_equiv_pos_as_xyz
  1  'x, y, z'
loop_
 _atom_site_type_symbol
 _atom_site_label
 _atom_site_symmetry_multiplicity
 _atom_site_fract_x
 _atom_site_fract_y
 _atom_site_fract_z
 _atom_site_occupancy
  Zn  Zn0  1  0.25000000  0.22274000  0.18782500  1
  Zn  Zn1  1  0.75000000  0.72274000  0.31217500  1
  Zn  Zn2  1  0.25000000  0.27726000  0.68782500  1
  Zn  Zn3  1  0.75000000  0.77726000  0.81217500  1
  Se  Se4  1  0.25000000  0.64750200  0.00306300  1
  Se  Se5  1  0.75000000  0.14750200  0.49693700  1
  Se  Se6  1  0.25000000  0.85249800  0.50306300  1
  Se  Se7  1  0.75000000  0.35249800  0.99693700  1
  O  O8  1  0.00899600  0.77955400  0.01418600  1
  O  O9  1  0.49100400  0.77955400  0.01418600  1
  O  O10  1  0.75000000  0.46686400  0.20021300  1
  O  O11  1  0.25000000  0.50994600  0.19332700  1
  O  O12  1  0.75000000  0.00994600  0.30667300  1
  O  O13  1  0.25000000  0.96686400  0.29978700  1
  O  O14  1  0.99100400  0.27955400  0.48581400  1
  O  O15  1  0.50899600  0.27955400  0.48581400  1
  O  O16  1  0.00899600  0.72044600  0.51418600  1
  O  O17  1  0.49100400  0.72044600  0.51418600  1
  O  O18  1  0.75000000  0.03313600  0.70021300  1
  O  O19  1  0.25000000  0.99005400  0.69332700  1
  O  O20  1  0.75000000  0.49005400  0.80667300  1
  O  O21  1  0.25000000  0.53313600  0.79978700  1
  O  O22  1  0.50899600  0.22044600  0.98581400  1
  O  O23  1  0.99100400  0.22044600  0.98581400  1
