# generated using pymatgen
data_Rb4SnO3
_symmetry_space_group_name_H-M   'P 1'
_cell_length_a   6.86648400
_cell_length_b   11.88394800
_cell_length_c   20.14633800
_cell_angle_alpha   90.00000000
_cell_angle_beta   90.00000000
_cell_angle_gamma   90.00000000
_symmetry_Int_Tables_number   1
_chemical_formula_structural   Rb4SnO3
_chemical_formula_sum   'Rb32 Sn8 O24'
_cell_volume   1643.96009416
_cell_formula_units_Z   8
loop_
 _symmetry_equiv_pos_site_id
 _symmetry_equiv_pos_as_xyz
  1  'x, y, z'
loop_
 _atom_site_type_symbol
 _atom_site_label
 _atom_site_symmetry_multiplicity
 _atom_site_fract_x
 _atom_site_fract_y
 _atom_site_fract_z
 _atom_site_occupancy
  Rb  Rb0  1  0.03263100  0.11123700  0.20438400  1
  Rb  Rb1  1  0.03263100  0.38876300  0.70438400  1
  Rb  Rb2  1  0.12256500  0.82444900  0.15914900  1
  Rb  Rb3  1  0.12256500  0.67555100  0.65914900  1
  Rb  Rb4  1  0.22259000  0.18873200  0.44350200  1
  Rb  Rb5  1  0.22259000  0.31126800  0.94350200  1
  Rb  Rb6  1  0.23885800  0.05664000  0.03814100  1
  Rb  Rb7  1  0.23885800  0.44336000  0.53814100  1
  Rb  Rb8  1  0.26114200  0.55664000  0.03814100  1
  Rb  Rb9  1  0.26114200  0.94336000  0.53814100  1
  Rb  Rb10  1  0.27741000  0.68873200  0.44350200  1
  Rb  Rb11  1  0.27741000  0.81126800  0.94350200  1
  Rb  Rb12  1  0.37743500  0.32444900  0.15914900  1
  Rb  Rb13  1  0.37743500  0.17555100  0.65914900  1
  Rb  Rb14  1  0.46736900  0.61123700  0.20438400  1
  Rb  Rb15  1  0.46736900  0.88876300  0.70438400  1
  Rb  Rb16  1  0.53263100  0.11123700  0.29561600  1
  Rb  Rb17  1  0.53263100  0.38876300  0.79561600  1
  Rb  Rb18  1  0.62256500  0.82444900  0.34085100  1
  Rb  Rb19  1  0.62256500  0.67555100  0.84085100  1
  Rb  Rb20  1  0.72259000  0.18873200  0.05649800  1
  Rb  Rb21  1  0.72259000  0.31126800  0.55649800  1
  Rb  Rb22  1  0.73885800  0.05664000  0.46185900  1
  Rb  Rb23  1  0.73885800  0.44336000  0.96185900  1
  Rb  Rb24  1  0.76114200  0.55664000  0.46185900  1
  Rb  Rb25  1  0.76114200  0.94336000  0.96185900  1
  Rb  Rb26  1  0.77741000  0.68873200  0.05649800  1
  Rb  Rb27  1  0.77741000  0.81126800  0.55649800  1
  Rb  Rb28  1  0.87743500  0.32444900  0.34085100  1
  Rb  Rb29  1  0.87743500  0.17555100  0.84085100  1
  Rb  Rb30  1  0.96736900  0.61123700  0.29561600  1
  Rb  Rb31  1  0.96736900  0.88876300  0.79561600  1
  Sn  Sn32  1  0.10573100  0.93102900  0.35262000  1
  Sn  Sn33  1  0.10573100  0.56897100  0.85262000  1
  Sn  Sn34  1  0.39426900  0.06897100  0.85262000  1
  Sn  Sn35  1  0.39426900  0.43102900  0.35262000  1
  Sn  Sn36  1  0.60573100  0.93102900  0.14738000  1
  Sn  Sn37  1  0.60573100  0.56897100  0.64738000  1
  Sn  Sn38  1  0.89426900  0.43102900  0.14738000  1
  Sn  Sn39  1  0.89426900  0.06897100  0.64738000  1
  O  O40  1  0.03753900  0.58623200  0.15586900  1
  O  O41  1  0.03753900  0.91376800  0.65586900  1
  O  O42  1  0.04507400  0.35173000  0.07042100  1
  O  O43  1  0.04507400  0.14827000  0.57042100  1
  O  O44  1  0.13703400  0.47675800  0.40055800  1
  O  O45  1  0.13703400  0.02324200  0.90055800  1
  O  O46  1  0.36296600  0.97675800  0.40055800  1
  O  O47  1  0.36296600  0.52324200  0.90055800  1
  O  O48  1  0.45492600  0.85173000  0.07042100  1
  O  O49  1  0.45492600  0.64827000  0.57042100  1
  O  O50  1  0.46246100  0.08623200  0.15586900  1
  O  O51  1  0.46246100  0.41376800  0.65586900  1
  O  O52  1  0.53753900  0.58623200  0.34413100  1
  O  O53  1  0.53753900  0.91376800  0.84413100  1
  O  O54  1  0.54507400  0.14827000  0.92957900  1
  O  O55  1  0.54507400  0.35173000  0.42957900  1
  O  O56  1  0.63703400  0.47675800  0.09944200  1
  O  O57  1  0.63703400  0.02324200  0.59944200  1
  O  O58  1  0.86296600  0.52324200  0.59944200  1
  O  O59  1  0.86296600  0.97675800  0.09944200  1
  O  O60  1  0.95492600  0.64827000  0.92957900  1
  O  O61  1  0.95492600  0.85173000  0.42957900  1
  O  O62  1  0.96246100  0.08623200  0.34413100  1
  O  O63  1  0.96246100  0.41376800  0.84413100  1
