# generated using pymatgen
data_Na3IO
_symmetry_space_group_name_H-M   'P 1'
_cell_length_a   6.79788963
_cell_length_b   6.79788963
_cell_length_c   16.58140300
_cell_angle_alpha   90.00000000
_cell_angle_beta   90.00000000
_cell_angle_gamma   119.99999636
_symmetry_Int_Tables_number   1
_chemical_formula_structural   Na3IO
_chemical_formula_sum   'Na18 I6 O6'
_cell_volume   663.59046947
_cell_formula_units_Z   6
loop_
 _symmetry_equiv_pos_site_id
 _symmetry_equiv_pos_as_xyz
  1  'x, y, z'
loop_
 _atom_site_type_symbol
 _atom_site_label
 _atom_site_symmetry_multiplicity
 _atom_site_fract_x
 _atom_site_fract_y
 _atom_site_fract_z
 _atom_site_occupancy
  Na  Na0  1  0.16640600  0.83359400  0.92090500  1
  Na  Na1  1  0.16640600  0.83359400  0.57909500  1
  Na  Na2  1  0.05727800  0.52863900  0.75000000  1
  Na  Na3  1  0.16640600  0.33281300  0.57909500  1
  Na  Na4  1  0.16640600  0.33281300  0.92090500  1
  Na  Na5  1  0.47136100  0.94272200  0.75000000  1
  Na  Na6  1  0.47136100  0.52863900  0.75000000  1
  Na  Na7  1  0.33281300  0.16640600  0.07909500  1
  Na  Na8  1  0.33281300  0.16640600  0.42090500  1
  Na  Na9  1  0.66718700  0.83359400  0.92090500  1
  Na  Na10  1  0.66718700  0.83359400  0.57909500  1
  Na  Na11  1  0.52863900  0.47136100  0.25000000  1
  Na  Na12  1  0.52863900  0.05727800  0.25000000  1
  Na  Na13  1  0.83359400  0.66718700  0.07909500  1
  Na  Na14  1  0.83359400  0.66718700  0.42090500  1
  Na  Na15  1  0.94272200  0.47136100  0.25000000  1
  Na  Na16  1  0.83359400  0.16640600  0.07909500  1
  Na  Na17  1  0.83359400  0.16640600  0.42090500  1
  I  I18  1  0.33333300  0.66666700  0.09946300  1
  I  I19  1  0.00000000  0.00000000  0.25000000  1
  I  I20  1  0.33333300  0.66666700  0.40053700  1
  I  I21  1  0.00000000  0.00000000  0.75000000  1
  I  I22  1  0.66666700  0.33333300  0.59946300  1
  I  I23  1  0.66666700  0.33333300  0.90053700  1
  O  O24  1  0.33333300  0.66666700  0.85053700  1
  O  O25  1  0.00000000  0.00000000  0.00000000  1
  O  O26  1  0.00000000  0.00000000  0.50000000  1
  O  O27  1  0.33333300  0.66666700  0.64946300  1
  O  O28  1  0.66666700  0.33333300  0.35053700  1
  O  O29  1  0.66666700  0.33333300  0.14946300  1
