# generated using pymatgen
data_Y4Ga2O9
_symmetry_space_group_name_H-M   'P 1'
_cell_length_a   10.72179000
_cell_length_b   7.46960200
_cell_length_c   11.41510616
_cell_angle_alpha   71.84249234
_cell_angle_beta   90.00000000
_cell_angle_gamma   90.00000000
_symmetry_Int_Tables_number   1
_chemical_formula_structural   Y4Ga2O9
_chemical_formula_sum   'Y16 Ga8 O36'
_cell_volume   868.68296757
_cell_formula_units_Z   4
loop_
 _symmetry_equiv_pos_site_id
 _symmetry_equiv_pos_as_xyz
  1  'x, y, z'
loop_
 _atom_site_type_symbol
 _atom_site_label
 _atom_site_symmetry_multiplicity
 _atom_site_fract_x
 _atom_site_fract_y
 _atom_site_fract_z
 _atom_site_occupancy
  Y  Y0  1  0.90089900  0.97863500  0.80166600  1
  Y  Y1  1  0.59910100  0.97863500  0.30166600  1
  Y  Y2  1  0.11904000  0.83563700  0.58892100  1
  Y  Y3  1  0.62259600  0.66240300  0.93602300  1
  Y  Y4  1  0.38096000  0.83563700  0.08892100  1
  Y  Y5  1  0.87740400  0.66240300  0.43602300  1
  Y  Y6  1  0.38809400  0.52215400  0.72080700  1
  Y  Y7  1  0.88809400  0.47784600  0.77919300  1
  Y  Y8  1  0.11190600  0.52215400  0.22080700  1
  Y  Y9  1  0.61190600  0.47784600  0.27919300  1
  Y  Y10  1  0.12259600  0.33759700  0.56397700  1
  Y  Y11  1  0.61904000  0.16436300  0.91107900  1
  Y  Y12  1  0.37740400  0.33759700  0.06397700  1
  Y  Y13  1  0.88096000  0.16436300  0.41107900  1
  Y  Y14  1  0.40089900  0.02136500  0.69833400  1
  Y  Y15  1  0.09910100  0.02136500  0.19833400  1
  Ga  Ga16  1  0.67800400  0.79037400  0.62497600  1
  Ga  Ga17  1  0.17433900  0.65779500  0.89219400  1
  Ga  Ga18  1  0.82199600  0.79037400  0.12497600  1
  Ga  Ga19  1  0.32566100  0.65779500  0.39219400  1
  Ga  Ga20  1  0.67433900  0.34220500  0.60780600  1
  Ga  Ga21  1  0.17800400  0.20962600  0.87502400  1
  Ga  Ga22  1  0.82566100  0.34220500  0.10780600  1
  Ga  Ga23  1  0.32199600  0.20962600  0.37502400  1
  O  O24  1  0.76515500  0.93394300  0.97331300  1
  O  O25  1  0.49171100  0.92189000  0.89477300  1
  O  O26  1  0.26251300  0.79128800  0.75219200  1
  O  O27  1  0.76088800  0.76307300  0.77357800  1
  O  O28  1  0.73484500  0.93394300  0.47331300  1
  O  O29  1  0.00828900  0.92189000  0.39477300  1
  O  O30  1  0.01439900  0.70072600  0.82966000  1
  O  O31  1  0.51105800  0.78807200  0.65664300  1
  O  O32  1  0.23748700  0.79128800  0.25219200  1
  O  O33  1  0.73911200  0.76307300  0.27357800  1
  O  O34  1  0.26977600  0.63749100  0.54733400  1
  O  O35  1  0.48560100  0.70072600  0.32966000  1
  O  O36  1  0.75065900  0.56923100  0.60980400  1
  O  O37  1  0.50988500  0.43574200  0.89340100  1
  O  O38  1  0.98894200  0.78807200  0.15664300  1
  O  O39  1  0.00988500  0.56425800  0.60659900  1
  O  O40  1  0.25065900  0.43076900  0.89019600  1
  O  O41  1  0.76977600  0.36250900  0.95266600  1
  O  O42  1  0.23022400  0.63749100  0.04733400  1
  O  O43  1  0.74934100  0.56923100  0.10980400  1
  O  O44  1  0.99011500  0.43574200  0.39340100  1
  O  O45  1  0.01105800  0.21192800  0.84335700  1
  O  O46  1  0.49011500  0.56425800  0.10659900  1
  O  O47  1  0.24934100  0.43076900  0.39019600  1
  O  O48  1  0.51439900  0.29927400  0.67034000  1
  O  O49  1  0.73022400  0.36250900  0.45266600  1
  O  O50  1  0.26088800  0.23692700  0.72642200  1
  O  O51  1  0.76251300  0.20871200  0.74780800  1
  O  O52  1  0.48894200  0.21192800  0.34335700  1
  O  O53  1  0.98560100  0.29927400  0.17034000  1
  O  O54  1  0.99171100  0.07811000  0.60522700  1
  O  O55  1  0.26515500  0.06605700  0.52668700  1
  O  O56  1  0.23911200  0.23692700  0.22642200  1
  O  O57  1  0.73748700  0.20871200  0.24780800  1
  O  O58  1  0.50828900  0.07811000  0.10522700  1
  O  O59  1  0.23484500  0.06605700  0.02668700  1
