# generated using pymatgen
data_Y4Ga2O9
_symmetry_space_group_name_H-M   'P 1'
_cell_length_a   10.67172300
_cell_length_b   7.42484900
_cell_length_c   11.41629580
_cell_angle_alpha   72.28286901
_cell_angle_beta   90.00000000
_cell_angle_gamma   90.00000000
_symmetry_Int_Tables_number   1
_chemical_formula_structural   Y4Ga2O9
_chemical_formula_sum   'Y16 Ga8 O36'
_cell_volume   861.67705100
_cell_formula_units_Z   4
loop_
 _symmetry_equiv_pos_site_id
 _symmetry_equiv_pos_as_xyz
  1  'x, y, z'
loop_
 _atom_site_type_symbol
 _atom_site_label
 _atom_site_symmetry_multiplicity
 _atom_site_fract_x
 _atom_site_fract_y
 _atom_site_fract_z
 _atom_site_occupancy
  Y  Y0  1  0.62864500  0.90643000  0.94141300  1
  Y  Y1  1  0.87135500  0.90643000  0.44141300  1
  Y  Y2  1  0.40098400  0.77370700  0.69986200  1
  Y  Y3  1  0.88446700  0.73740800  0.78018700  1
  Y  Y4  1  0.09901600  0.77370700  0.19986200  1
  Y  Y5  1  0.11550800  0.58269300  0.59203000  1
  Y  Y6  1  0.61553300  0.73740800  0.28018700  1
  Y  Y7  1  0.61550800  0.41730700  0.90797000  1
  Y  Y8  1  0.38449200  0.58269300  0.09203000  1
  Y  Y9  1  0.38446700  0.26259200  0.71981300  1
  Y  Y10  1  0.88449200  0.41730700  0.40797000  1
  Y  Y11  1  0.90098400  0.22629300  0.80013800  1
  Y  Y12  1  0.11553300  0.26259200  0.21981300  1
  Y  Y13  1  0.59901600  0.22629300  0.30013800  1
  Y  Y14  1  0.12864500  0.09357000  0.55858700  1
  Y  Y15  1  0.37135500  0.09357000  0.05858700  1
  Ga  Ga16  1  0.17098100  0.94587800  0.87769000  1
  Ga  Ga17  1  0.32901900  0.94587800  0.37769000  1
  Ga  Ga18  1  0.67610400  0.58608700  0.60868700  1
  Ga  Ga19  1  0.17610400  0.41391300  0.89131300  1
  Ga  Ga20  1  0.82389600  0.58608700  0.10868700  1
  Ga  Ga21  1  0.32389600  0.41391300  0.39131300  1
  Ga  Ga22  1  0.67098100  0.05412200  0.62231000  1
  Ga  Ga23  1  0.82901900  0.05412200  0.12231000  1
  O  O24  1  0.00132700  0.93701300  0.85672000  1
  O  O25  1  0.25516200  0.97978500  0.72870100  1
  O  O26  1  0.00303000  0.83397800  0.60829300  1
  O  O27  1  0.73857300  0.82233700  0.61341700  1
  O  O28  1  0.49400300  0.68751400  0.89472600  1
  O  O29  1  0.49867300  0.93701300  0.35672000  1
  O  O30  1  0.24483800  0.97978500  0.22870100  1
  O  O31  1  0.76121500  0.62064000  0.95306800  1
  O  O32  1  0.26599900  0.80961100  0.52762300  1
  O  O33  1  0.26717100  0.53547300  0.75150700  1
  O  O34  1  0.49697000  0.83397800  0.10829300  1
  O  O35  1  0.76142700  0.82233700  0.11341700  1
  O  O36  1  0.01848100  0.47529200  0.82459900  1
  O  O37  1  0.00599700  0.68751400  0.39472600  1
  O  O38  1  0.51848100  0.52470800  0.67540100  1
  O  O39  1  0.73878500  0.62064000  0.45306800  1
  O  O40  1  0.76717100  0.46452700  0.74849300  1
  O  O41  1  0.23400100  0.80961100  0.02762300  1
  O  O42  1  0.76599900  0.19038900  0.97237700  1
  O  O43  1  0.23282900  0.53547300  0.25150700  1
  O  O44  1  0.26121500  0.37936000  0.54693200  1
  O  O45  1  0.48151900  0.47529200  0.32459900  1
  O  O46  1  0.99400300  0.31248600  0.60527400  1
  O  O47  1  0.98151900  0.52470800  0.17540100  1
  O  O48  1  0.23857300  0.17766300  0.88658300  1
  O  O49  1  0.50303000  0.16602200  0.89170700  1
  O  O50  1  0.73282900  0.46452700  0.24849300  1
  O  O51  1  0.73400100  0.19038900  0.47237700  1
  O  O52  1  0.23878500  0.37936000  0.04693200  1
  O  O53  1  0.75516200  0.02021500  0.77129900  1
  O  O54  1  0.50132700  0.06298700  0.64328000  1
  O  O55  1  0.50599700  0.31248600  0.10527400  1
  O  O56  1  0.26142700  0.17766300  0.38658300  1
  O  O57  1  0.99697000  0.16602200  0.39170700  1
  O  O58  1  0.74483800  0.02021500  0.27129900  1
  O  O59  1  0.99867300  0.06298700  0.14328000  1
