# generated using pymatgen
data_Mn7CrO16
_symmetry_space_group_name_H-M   'P 1'
_cell_length_a   5.82323300
_cell_length_b   5.82548300
_cell_length_c   8.23928839
_cell_angle_alpha   89.88571140
_cell_angle_beta   90.00000000
_cell_angle_gamma   90.00000000
_symmetry_Int_Tables_number   1
_chemical_formula_structural   Mn7CrO16
_chemical_formula_sum   'Mn7 Cr1 O16'
_cell_volume   279.50201749
_cell_formula_units_Z   1
loop_
 _symmetry_equiv_pos_site_id
 _symmetry_equiv_pos_as_xyz
  1  'x, y, z'
loop_
 _atom_site_type_symbol
 _atom_site_label
 _atom_site_symmetry_multiplicity
 _atom_site_fract_x
 _atom_site_fract_y
 _atom_site_fract_z
 _atom_site_occupancy
  Mn  Mn0  1  0.50000000  0.00000000  0.00000000  1
  Mn  Mn1  1  0.24960400  0.74999900  0.25040300  1
  Mn  Mn2  1  0.75039600  0.74999900  0.25040300  1
  Mn  Mn3  1  0.00000000  0.00000000  0.50000000  1
  Mn  Mn4  1  0.00000000  0.50000000  0.50000000  1
  Mn  Mn5  1  0.24960400  0.25000100  0.74959700  1
  Mn  Mn6  1  0.75039600  0.25000100  0.74959700  1
  Cr  Cr7  1  0.50000000  0.50000000  0.00000000  1
  O  O8  1  0.72022300  0.75076200  0.01573000  1
  O  O9  1  0.27977700  0.75076200  0.01573000  1
  O  O10  1  0.50000000  0.53140100  0.23635300  1
  O  O11  1  0.50000000  0.97041400  0.23507100  1
  O  O12  1  0.00000000  0.52972800  0.26504900  1
  O  O13  1  0.00000000  0.97102400  0.26497800  1
  O  O14  1  0.22045600  0.74998600  0.48560300  1
  O  O15  1  0.77954400  0.74998600  0.48560300  1
  O  O16  1  0.22045600  0.25001400  0.51439700  1
  O  O17  1  0.77954400  0.25001400  0.51439700  1
  O  O18  1  0.00000000  0.47027200  0.73495100  1
  O  O19  1  0.00000000  0.02897600  0.73502200  1
  O  O20  1  0.50000000  0.46859900  0.76364700  1
  O  O21  1  0.50000000  0.02958600  0.76492900  1
  O  O22  1  0.27977700  0.24923800  0.98427000  1
  O  O23  1  0.72022300  0.24923800  0.98427000  1
