# generated using pymatgen
data_La2Ti3O9
_symmetry_space_group_name_H-M   'P 1'
_cell_length_a   5.91399500
_cell_length_b   7.92044871
_cell_length_c   9.01208891
_cell_angle_alpha   108.39917237
_cell_angle_beta   108.23614271
_cell_angle_gamma   91.22820871
_symmetry_Int_Tables_number   1
_chemical_formula_structural   La2Ti3O9
_chemical_formula_sum   'La4 Ti6 O18'
_cell_volume   377.04256172
_cell_formula_units_Z   2
loop_
 _symmetry_equiv_pos_site_id
 _symmetry_equiv_pos_as_xyz
  1  'x, y, z'
loop_
 _atom_site_type_symbol
 _atom_site_label
 _atom_site_symmetry_multiplicity
 _atom_site_fract_x
 _atom_site_fract_y
 _atom_site_fract_z
 _atom_site_occupancy
  La  La0  1  0.80684700  0.18080500  0.57976500  1
  La  La1  1  0.12880900  0.19273200  0.21487900  1
  La  La2  1  0.87119100  0.80726800  0.78512100  1
  La  La3  1  0.19315300  0.81919500  0.42023500  1
  Ti  Ti4  1  0.42632700  0.07566400  0.85106100  1
  Ti  Ti5  1  0.76658600  0.48643900  0.99837800  1
  Ti  Ti6  1  0.33891500  0.48394300  0.66090800  1
  Ti  Ti7  1  0.66108500  0.51605700  0.33909200  1
  Ti  Ti8  1  0.23341400  0.51356100  0.00162200  1
  Ti  Ti9  1  0.57367300  0.92433600  0.14893900  1
  O  O10  1  0.71631800  0.00315600  0.99841600  1
  O  O11  1  0.11837000  0.01145000  0.69432500  1
  O  O12  1  0.57913700  0.02504800  0.69017900  1
  O  O13  1  0.98991600  0.32465800  0.95474100  1
  O  O14  1  0.45979400  0.32457100  0.94865900  1
  O  O15  1  0.18405300  0.28104100  0.49663000  1
  O  O16  1  0.61224500  0.32131200  0.39034300  1
  O  O17  1  0.65665800  0.46132300  0.76303400  1
  O  O18  1  0.12145100  0.52138700  0.77542500  1
  O  O19  1  0.87854900  0.47861300  0.22457500  1
  O  O20  1  0.34334200  0.53867700  0.23696600  1
  O  O21  1  0.38775500  0.67868800  0.60965700  1
  O  O22  1  0.81594700  0.71895900  0.50337000  1
  O  O23  1  0.54020600  0.67542900  0.05134100  1
  O  O24  1  0.01008400  0.67534200  0.04525900  1
  O  O25  1  0.42086300  0.97495200  0.30982100  1
  O  O26  1  0.88163000  0.98855000  0.30567500  1
  O  O27  1  0.28368200  0.99684400  0.00158400  1
