# generated using pymatgen
data_YP5O14
_symmetry_space_group_name_H-M   'P 1'
_cell_length_a   8.82383800
_cell_length_b   9.17600400
_cell_length_c   12.85150400
_cell_angle_alpha   90.00000000
_cell_angle_beta   90.00000000
_cell_angle_gamma   90.00000000
_symmetry_Int_Tables_number   1
_chemical_formula_structural   YP5O14
_chemical_formula_sum   'Y4 P20 O56'
_cell_volume   1040.55508550
_cell_formula_units_Z   4
loop_
 _symmetry_equiv_pos_site_id
 _symmetry_equiv_pos_as_xyz
  1  'x, y, z'
loop_
 _atom_site_type_symbol
 _atom_site_label
 _atom_site_symmetry_multiplicity
 _atom_site_fract_x
 _atom_site_fract_y
 _atom_site_fract_z
 _atom_site_occupancy
  Y  Y0  1  0.02052100  0.05690600  0.75000000  1
  Y  Y1  1  0.52052100  0.44309400  0.75000000  1
  Y  Y2  1  0.47947900  0.55690600  0.25000000  1
  Y  Y3  1  0.97947900  0.94309400  0.25000000  1
  P  P4  1  0.24294700  0.77219200  0.06886800  1
  P  P5  1  0.74294700  0.72780800  0.43113200  1
  P  P6  1  0.25705300  0.27219200  0.93113200  1
  P  P7  1  0.75705300  0.22780800  0.56886800  1
  P  P8  1  0.75705300  0.22780800  0.93113200  1
  P  P9  1  0.25705300  0.27219200  0.56886800  1
  P  P10  1  0.74294700  0.72780800  0.06886800  1
  P  P11  1  0.24294700  0.77219200  0.43113200  1
  P  P12  1  0.42732500  0.00354100  0.75000000  1
  P  P13  1  0.92732500  0.49645900  0.75000000  1
  P  P14  1  0.07267500  0.50354100  0.25000000  1
  P  P15  1  0.57267500  0.99645900  0.25000000  1
  P  P16  1  0.50920500  0.20452800  0.08215900  1
  P  P17  1  0.00920500  0.29547200  0.41784100  1
  P  P18  1  0.99079500  0.70452800  0.91784100  1
  P  P19  1  0.49079500  0.79547200  0.58215900  1
  P  P20  1  0.49079500  0.79547200  0.91784100  1
  P  P21  1  0.99079500  0.70452800  0.58215900  1
  P  P22  1  0.00920500  0.29547200  0.08215900  1
  P  P23  1  0.50920500  0.20452800  0.41784100  1
  O  O24  1  0.00984600  0.15259300  0.13484600  1
  O  O25  1  0.50984600  0.34740700  0.36515400  1
  O  O26  1  0.49015400  0.65259300  0.86515400  1
  O  O27  1  0.99015400  0.84740700  0.63484600  1
  O  O28  1  0.99015400  0.84740700  0.86515400  1
  O  O29  1  0.49015400  0.65259300  0.63484600  1
  O  O30  1  0.50984600  0.34740700  0.13484600  1
  O  O31  1  0.00984600  0.15259300  0.36515400  1
  O  O32  1  0.66278900  0.15660800  0.02758700  1
  O  O33  1  0.16278900  0.34339200  0.47241300  1
  O  O34  1  0.83721100  0.65660800  0.97241300  1
  O  O35  1  0.33721100  0.84339200  0.52758700  1
  O  O36  1  0.33721100  0.84339200  0.97241300  1
  O  O37  1  0.83721100  0.65660800  0.52758700  1
  O  O38  1  0.16278900  0.34339200  0.02758700  1
  O  O39  1  0.66278900  0.15660800  0.47241300  1
  O  O40  1  0.84136000  0.83950000  0.11887800  1
  O  O41  1  0.34136000  0.66050000  0.38112200  1
  O  O42  1  0.65864000  0.33950000  0.88112200  1
  O  O43  1  0.38499100  0.18143700  0.99558300  1
  O  O44  1  0.15864000  0.16050000  0.61887800  1
  O  O45  1  0.65864000  0.33950000  0.61887800  1
  O  O46  1  0.34136000  0.66050000  0.11887800  1
  O  O47  1  0.84136000  0.83950000  0.38112200  1
  O  O48  1  0.72961600  0.05810800  0.25000000  1
  O  O49  1  0.22961600  0.44189200  0.25000000  1
  O  O50  1  0.77038400  0.55810800  0.75000000  1
  O  O51  1  0.27038400  0.94189200  0.75000000  1
  O  O52  1  0.47601400  0.06881100  0.34645500  1
  O  O53  1  0.97601400  0.43118900  0.15354500  1
  O  O54  1  0.02398600  0.56881100  0.65354500  1
  O  O55  1  0.52398600  0.93118900  0.84645500  1
  O  O56  1  0.52398600  0.93118900  0.65354500  1
  O  O57  1  0.02398600  0.56881100  0.84645500  1
  O  O58  1  0.97601400  0.43118900  0.34645500  1
  O  O59  1  0.47601400  0.06881100  0.15354500  1
  O  O60  1  0.03705700  0.66122400  0.25000000  1
  O  O61  1  0.53705700  0.83877600  0.25000000  1
  O  O62  1  0.46294300  0.16122400  0.75000000  1
  O  O63  1  0.96294300  0.33877600  0.75000000  1
  O  O64  1  0.17155900  0.89321700  0.37192000  1
  O  O65  1  0.67155900  0.60678300  0.12808000  1
  O  O66  1  0.32844100  0.39321700  0.62808000  1
  O  O67  1  0.82844100  0.10678300  0.87192000  1
  O  O68  1  0.82844100  0.10678300  0.62808000  1
  O  O69  1  0.32844100  0.39321700  0.87192000  1
  O  O70  1  0.67155900  0.60678300  0.37192000  1
  O  O71  1  0.17155900  0.89321700  0.12808000  1
  O  O72  1  0.38499100  0.18143700  0.50441700  1
  O  O73  1  0.88499100  0.31856300  0.99558300  1
  O  O74  1  0.11500900  0.68143700  0.49558300  1
  O  O75  1  0.61500900  0.81856300  0.00441700  1
  O  O76  1  0.61500900  0.81856300  0.49558300  1
  O  O77  1  0.11500900  0.68143700  0.00441700  1
  O  O78  1  0.88499100  0.31856300  0.50441700  1
  O  O79  1  0.15864000  0.16050000  0.88112200  1
