# generated using pymatgen
data_CaY2O4
_symmetry_space_group_name_H-M   'P 1'
_cell_length_a   3.38335400
_cell_length_b   9.97618500
_cell_length_c   11.82911500
_cell_angle_alpha   90.00000000
_cell_angle_beta   90.00000000
_cell_angle_gamma   90.00000000
_symmetry_Int_Tables_number   1
_chemical_formula_structural   CaY2O4
_chemical_formula_sum   'Ca4 Y8 O16'
_cell_volume   399.26770960
_cell_formula_units_Z   4
loop_
 _symmetry_equiv_pos_site_id
 _symmetry_equiv_pos_as_xyz
  1  'x, y, z'
loop_
 _atom_site_type_symbol
 _atom_site_label
 _atom_site_symmetry_multiplicity
 _atom_site_fract_x
 _atom_site_fract_y
 _atom_site_fract_z
 _atom_site_occupancy
  Ca  Ca0  1  0.75000000  0.24915400  0.64881500  1
  Ca  Ca1  1  0.25000000  0.25084600  0.14881500  1
  Ca  Ca2  1  0.75000000  0.74915400  0.85118500  1
  Ca  Ca3  1  0.25000000  0.75084600  0.35118500  1
  Y  Y4  1  0.75000000  0.07900500  0.38889100  1
  Y  Y5  1  0.75000000  0.07717900  0.88607900  1
  Y  Y6  1  0.25000000  0.42282100  0.38607900  1
  Y  Y7  1  0.25000000  0.42099500  0.88889100  1
  Y  Y8  1  0.75000000  0.57900500  0.11110900  1
  Y  Y9  1  0.75000000  0.57717900  0.61392100  1
  Y  Y10  1  0.25000000  0.92282100  0.11392100  1
  Y  Y11  1  0.25000000  0.92099500  0.61110900  1
  O  O12  1  0.25000000  0.02114600  0.28262700  1
  O  O13  1  0.75000000  0.07941700  0.07865200  1
  O  O14  1  0.25000000  0.13193000  0.52391300  1
  O  O15  1  0.25000000  0.21042300  0.81373200  1
  O  O16  1  0.75000000  0.28957700  0.31373200  1
  O  O17  1  0.75000000  0.36807000  0.02391300  1
  O  O18  1  0.25000000  0.42058300  0.57865200  1
  O  O19  1  0.75000000  0.47885400  0.78262700  1
  O  O20  1  0.25000000  0.52114600  0.21737300  1
  O  O21  1  0.75000000  0.57941700  0.42134800  1
  O  O22  1  0.25000000  0.63193000  0.97608700  1
  O  O23  1  0.25000000  0.71042300  0.68626800  1
  O  O24  1  0.75000000  0.78957700  0.18626800  1
  O  O25  1  0.75000000  0.86807000  0.47608700  1
  O  O26  1  0.25000000  0.92058300  0.92134800  1
  O  O27  1  0.75000000  0.97885400  0.71737300  1
