# generated using pymatgen
data_Tb2(WO4)3
_symmetry_space_group_name_H-M   'P 1'
_cell_length_a   10.51632500
_cell_length_b   10.55710300
_cell_length_c   10.80770000
_cell_angle_alpha   90.00000000
_cell_angle_beta   90.00000000
_cell_angle_gamma   90.00000000
_symmetry_Int_Tables_number   1
_chemical_formula_structural   Tb2(WO4)3
_chemical_formula_sum   'Tb8 W12 O48'
_cell_volume   1199.89167186
_cell_formula_units_Z   4
loop_
 _symmetry_equiv_pos_site_id
 _symmetry_equiv_pos_as_xyz
  1  'x, y, z'
loop_
 _atom_site_type_symbol
 _atom_site_label
 _atom_site_symmetry_multiplicity
 _atom_site_fract_x
 _atom_site_fract_y
 _atom_site_fract_z
 _atom_site_occupancy
  Tb  Tb0  1  0.00664500  0.81194000  0.26280500  1
  Tb  Tb1  1  0.18820100  0.49625800  0.73783200  1
  Tb  Tb2  1  0.31179900  0.99625800  0.73783200  1
  Tb  Tb3  1  0.49335500  0.31194000  0.26280500  1
  Tb  Tb4  1  0.50664500  0.68806000  0.26280500  1
  Tb  Tb5  1  0.68820100  0.00374200  0.73783200  1
  Tb  Tb6  1  0.81179900  0.50374200  0.73783200  1
  Tb  Tb7  1  0.99335500  0.18806000  0.26280500  1
  W  W8  1  0.00269500  0.20614700  0.64317000  1
  W  W9  1  0.20530300  0.48883400  0.35737100  1
  W  W10  1  0.24202200  0.24378800  0.99960200  1
  W  W11  1  0.25797800  0.74378800  0.99960200  1
  W  W12  1  0.29469700  0.98883400  0.35737100  1
  W  W13  1  0.49730500  0.70614700  0.64317000  1
  W  W14  1  0.50269500  0.29385300  0.64317000  1
  W  W15  1  0.70530300  0.01116600  0.35737100  1
  W  W16  1  0.74202200  0.25621200  0.99960200  1
  W  W17  1  0.75797800  0.75621200  0.99960200  1
  W  W18  1  0.79469700  0.51116600  0.35737100  1
  W  W19  1  0.99730500  0.79385300  0.64317000  1
  O  O20  1  0.00625900  0.62626800  0.69104100  1
  O  O21  1  0.02238700  0.80562000  0.47822700  1
  O  O22  1  0.11321200  0.61679900  0.29159300  1
  O  O23  1  0.11971300  0.88439100  0.72051900  1
  O  O24  1  0.12096800  0.17062400  0.09482800  1
  O  O25  1  0.12660900  0.00562500  0.31036500  1
  O  O26  1  0.14312900  0.81971800  0.10032700  1
  O  O27  1  0.15363200  0.33444900  0.30574000  1
  O  O28  1  0.16067000  0.15239800  0.68202100  1
  O  O29  1  0.16824700  0.35931300  0.89887700  1
  O  O30  1  0.18201800  0.62454200  0.90444700  1
  O  O31  1  0.19288500  0.49059300  0.52348000  1
  O  O32  1  0.30711500  0.99059300  0.52348000  1
  O  O33  1  0.31798200  0.12454200  0.90444700  1
  O  O34  1  0.33175300  0.85931300  0.89887700  1
  O  O35  1  0.33933000  0.65239800  0.68202100  1
  O  O36  1  0.34636800  0.83444900  0.30574000  1
  O  O37  1  0.35687100  0.31971800  0.10032700  1
  O  O38  1  0.37339100  0.50562500  0.31036500  1
  O  O39  1  0.37903200  0.67062400  0.09482800  1
  O  O40  1  0.38028700  0.38439100  0.72051900  1
  O  O41  1  0.38678800  0.11679900  0.29159300  1
  O  O42  1  0.47761300  0.30562000  0.47822700  1
  O  O43  1  0.49374100  0.12626800  0.69104100  1
  O  O44  1  0.50625900  0.87373200  0.69104100  1
  O  O45  1  0.52238700  0.69438000  0.47822700  1
  O  O46  1  0.61321200  0.88320100  0.29159300  1
  O  O47  1  0.61971300  0.61560900  0.72051900  1
  O  O48  1  0.62096800  0.32937600  0.09482800  1
  O  O49  1  0.62660900  0.49437500  0.31036500  1
  O  O50  1  0.64312900  0.68028200  0.10032700  1
  O  O51  1  0.65363200  0.16555100  0.30574000  1
  O  O52  1  0.66067000  0.34760200  0.68202100  1
  O  O53  1  0.66824700  0.14068700  0.89887700  1
  O  O54  1  0.68201800  0.87545800  0.90444700  1
  O  O55  1  0.69288500  0.00940700  0.52348000  1
  O  O56  1  0.80711500  0.50940700  0.52348000  1
  O  O57  1  0.81798200  0.37545800  0.90444700  1
  O  O58  1  0.83175300  0.64068700  0.89887700  1
  O  O59  1  0.83933000  0.84760200  0.68202100  1
  O  O60  1  0.84636800  0.66555100  0.30574000  1
  O  O61  1  0.85687100  0.18028200  0.10032700  1
  O  O62  1  0.87339100  0.99437500  0.31036500  1
  O  O63  1  0.87903200  0.82937600  0.09482800  1
  O  O64  1  0.88028700  0.11560900  0.72051900  1
  O  O65  1  0.88678800  0.38320100  0.29159300  1
  O  O66  1  0.97761300  0.19438000  0.47822700  1
  O  O67  1  0.99374100  0.37373200  0.69104100  1
