# generated using pymatgen
data_Ta3InO9
_symmetry_space_group_name_H-M   'P 1'
_cell_length_a   7.49053000
_cell_length_b   5.19664400
_cell_length_c   8.37167943
_cell_angle_alpha   87.76378474
_cell_angle_beta   90.00000000
_cell_angle_gamma   90.00000000
_symmetry_Int_Tables_number   1
_chemical_formula_structural   Ta3InO9
_chemical_formula_sum   'Ta6 In2 O18'
_cell_volume   325.62462613
_cell_formula_units_Z   2
loop_
 _symmetry_equiv_pos_site_id
 _symmetry_equiv_pos_as_xyz
  1  'x, y, z'
loop_
 _atom_site_type_symbol
 _atom_site_label
 _atom_site_symmetry_multiplicity
 _atom_site_fract_x
 _atom_site_fract_y
 _atom_site_fract_z
 _atom_site_occupancy
  Ta  Ta0  1  0.00000000  0.00000000  0.00000000  1
  Ta  Ta1  1  0.50000000  0.00000000  0.00000000  1
  Ta  Ta2  1  0.49335700  0.52929400  0.69482200  1
  Ta  Ta3  1  0.00664300  0.52929400  0.69482200  1
  Ta  Ta4  1  0.99335700  0.47070600  0.30517800  1
  Ta  Ta5  1  0.50664300  0.47070600  0.30517800  1
  In  In6  1  0.25000000  0.97144300  0.44030900  1
  In  In7  1  0.75000000  0.02855700  0.55969100  1
  O  O8  1  0.25000000  0.89985500  0.97524500  1
  O  O9  1  0.93188100  0.85083200  0.78578900  1
  O  O10  1  0.56811900  0.85083200  0.78578900  1
  O  O11  1  0.94923000  0.74506700  0.47146600  1
  O  O12  1  0.55077000  0.74506700  0.47146600  1
  O  O13  1  0.25000000  0.67181100  0.65058200  1
  O  O14  1  0.94502200  0.67068800  0.12096000  1
  O  O15  1  0.55497800  0.67068800  0.12096000  1
  O  O16  1  0.25000000  0.59911200  0.31931900  1
  O  O17  1  0.75000000  0.40088800  0.68068100  1
  O  O18  1  0.05497800  0.32931200  0.87904000  1
  O  O19  1  0.44502200  0.32931200  0.87904000  1
  O  O20  1  0.75000000  0.32818900  0.34941800  1
  O  O21  1  0.05077000  0.25493300  0.52853400  1
  O  O22  1  0.44923000  0.25493300  0.52853400  1
  O  O23  1  0.06811900  0.14916800  0.21421100  1
  O  O24  1  0.43188100  0.14916800  0.21421100  1
  O  O25  1  0.75000000  0.10014500  0.02475500  1
