# generated using pymatgen
data_V3BO6
_symmetry_space_group_name_H-M   'P 1'
_cell_length_a   4.49337400
_cell_length_b   8.71832900
_cell_length_c   10.31261000
_cell_angle_alpha   90.00000000
_cell_angle_beta   90.00000000
_cell_angle_gamma   90.00000000
_symmetry_Int_Tables_number   1
_chemical_formula_structural   V3BO6
_chemical_formula_sum   'V12 B4 O24'
_cell_volume   403.99353551
_cell_formula_units_Z   4
loop_
 _symmetry_equiv_pos_site_id
 _symmetry_equiv_pos_as_xyz
  1  'x, y, z'
loop_
 _atom_site_type_symbol
 _atom_site_label
 _atom_site_symmetry_multiplicity
 _atom_site_fract_x
 _atom_site_fract_y
 _atom_site_fract_z
 _atom_site_occupancy
  V  V0  1  0.46794100  0.75000000  0.09398400  1
  V  V1  1  0.97923600  0.07015900  0.12889200  1
  V  V2  1  0.97923600  0.42984100  0.12889200  1
  V  V3  1  0.47923600  0.57015900  0.37110800  1
  V  V4  1  0.47923600  0.92984100  0.37110800  1
  V  V5  1  0.96794100  0.25000000  0.40601600  1
  V  V6  1  0.03205900  0.75000000  0.59398400  1
  V  V7  1  0.52076400  0.07015900  0.62889200  1
  V  V8  1  0.52076400  0.42984100  0.62889200  1
  V  V9  1  0.02076400  0.57015900  0.87110800  1
  V  V10  1  0.02076400  0.92984100  0.87110800  1
  V  V11  1  0.53205900  0.25000000  0.90601600  1
  B  B12  1  0.40897400  0.25000000  0.21928100  1
  B  B13  1  0.90897400  0.75000000  0.28071900  1
  B  B14  1  0.09102600  0.25000000  0.71928100  1
  B  B15  1  0.59102600  0.75000000  0.78071900  1
  O  O16  1  0.23472400  0.58197700  0.03137400  1
  O  O17  1  0.23472400  0.91802300  0.03137400  1
  O  O18  1  0.27275000  0.25000000  0.08561300  1
  O  O19  1  0.76817000  0.88838100  0.21456000  1
  O  O20  1  0.76817000  0.61161900  0.21456000  1
  O  O21  1  0.73065300  0.25000000  0.22179100  1
  O  O22  1  0.23065300  0.75000000  0.27820900  1
  O  O23  1  0.26817000  0.11161900  0.28544000  1
  O  O24  1  0.26817000  0.38838100  0.28544000  1
  O  O25  1  0.77275000  0.75000000  0.41438700  1
  O  O26  1  0.73472400  0.08197700  0.46862600  1
  O  O27  1  0.73472400  0.41802300  0.46862600  1
  O  O28  1  0.26527600  0.58197700  0.53137400  1
  O  O29  1  0.26527600  0.91802300  0.53137400  1
  O  O30  1  0.22725000  0.25000000  0.58561300  1
  O  O31  1  0.73183000  0.61161900  0.71456000  1
  O  O32  1  0.73183000  0.88838100  0.71456000  1
  O  O33  1  0.76934700  0.25000000  0.72179100  1
  O  O34  1  0.26934700  0.75000000  0.77820900  1
  O  O35  1  0.23183000  0.11161900  0.78544000  1
  O  O36  1  0.23183000  0.38838100  0.78544000  1
  O  O37  1  0.72725000  0.75000000  0.91438700  1
  O  O38  1  0.76527600  0.08197700  0.96862600  1
  O  O39  1  0.76527600  0.41802300  0.96862600  1
