# generated using pymatgen
data_Dy2WO6
_symmetry_space_group_name_H-M   'P 1'
_cell_length_a   5.59484000
_cell_length_b   10.66344800
_cell_length_c   16.09988400
_cell_angle_alpha   90.00000000
_cell_angle_beta   90.00000000
_cell_angle_gamma   90.00000000
_symmetry_Int_Tables_number   1
_chemical_formula_structural   Dy2WO6
_chemical_formula_sum   'Dy16 W8 O48'
_cell_volume   960.52367448
_cell_formula_units_Z   8
loop_
 _symmetry_equiv_pos_site_id
 _symmetry_equiv_pos_as_xyz
  1  'x, y, z'
loop_
 _atom_site_type_symbol
 _atom_site_label
 _atom_site_symmetry_multiplicity
 _atom_site_fract_x
 _atom_site_fract_y
 _atom_site_fract_z
 _atom_site_occupancy
  Dy  Dy0  1  0.59865000  0.85834700  0.93751300  1
  Dy  Dy1  1  0.09865000  0.14165300  0.56248700  1
  Dy  Dy2  1  0.40135000  0.64165300  0.43751300  1
  Dy  Dy3  1  0.90135000  0.35834700  0.06248700  1
  Dy  Dy4  1  0.40135000  0.14165300  0.06248700  1
  Dy  Dy5  1  0.90135000  0.85834700  0.43751300  1
  Dy  Dy6  1  0.59865000  0.35834700  0.56248700  1
  Dy  Dy7  1  0.09865000  0.64165300  0.93751300  1
  Dy  Dy8  1  0.54560500  0.64400700  0.77058000  1
  Dy  Dy9  1  0.04560500  0.35599300  0.72942000  1
  Dy  Dy10  1  0.45439500  0.85599300  0.27058000  1
  Dy  Dy11  1  0.95439500  0.14400700  0.22942000  1
  Dy  Dy12  1  0.45439500  0.35599300  0.22942000  1
  Dy  Dy13  1  0.95439500  0.64400700  0.27058000  1
  Dy  Dy14  1  0.54560500  0.14400700  0.72942000  1
  Dy  Dy15  1  0.04560500  0.85599300  0.77058000  1
  W  W16  1  0.61057000  0.87833100  0.62031400  1
  W  W17  1  0.11057000  0.12166900  0.87968600  1
  W  W18  1  0.38943000  0.62166900  0.12031400  1
  W  W19  1  0.88943000  0.37833100  0.37968600  1
  W  W20  1  0.38943000  0.12166900  0.37968600  1
  W  W21  1  0.88943000  0.87833100  0.12031400  1
  W  W22  1  0.61057000  0.37833100  0.87968600  1
  W  W23  1  0.11057000  0.62166900  0.62031400  1
  O  O24  1  0.90677500  0.98729000  0.89302900  1
  O  O25  1  0.40677500  0.01271000  0.60697100  1
  O  O26  1  0.09322500  0.51271000  0.39302900  1
  O  O27  1  0.59322500  0.48729000  0.10697100  1
  O  O28  1  0.09322500  0.01271000  0.10697100  1
  O  O29  1  0.59322500  0.98729000  0.39302900  1
  O  O30  1  0.90677500  0.48729000  0.60697100  1
  O  O31  1  0.40677500  0.51271000  0.89302900  1
  O  O32  1  0.57742900  0.78765100  0.52060700  1
  O  O33  1  0.07742900  0.21234900  0.97939300  1
  O  O34  1  0.42257100  0.71234900  0.02060700  1
  O  O35  1  0.92257100  0.28765100  0.47939300  1
  O  O36  1  0.42257100  0.21234900  0.47939300  1
  O  O37  1  0.92257100  0.78765100  0.02060700  1
  O  O38  1  0.57742900  0.28765100  0.97939300  1
  O  O39  1  0.07742900  0.71234900  0.52060700  1
  O  O40  1  0.88335600  0.95661300  0.57396400  1
  O  O41  1  0.38335600  0.04338700  0.92603600  1
  O  O42  1  0.11664400  0.54338700  0.07396400  1
  O  O43  1  0.61664400  0.45661300  0.42603600  1
  O  O44  1  0.11664400  0.04338700  0.42603600  1
  O  O45  1  0.61664400  0.95661300  0.07396400  1
  O  O46  1  0.88335600  0.45661300  0.92603600  1
  O  O47  1  0.38335600  0.54338700  0.57396400  1
  O  O48  1  0.67547900  0.94064700  0.73292500  1
  O  O49  1  0.17547900  0.05935300  0.76707500  1
  O  O50  1  0.32452100  0.55935300  0.23292500  1
  O  O51  1  0.82452100  0.44064700  0.26707500  1
  O  O52  1  0.32452100  0.05935300  0.26707500  1
  O  O53  1  0.82452100  0.94064700  0.23292500  1
  O  O54  1  0.67547900  0.44064700  0.76707500  1
  O  O55  1  0.17547900  0.55935300  0.73292500  1
  O  O56  1  0.83622000  0.73155000  0.67105700  1
  O  O57  1  0.33622000  0.26845000  0.82894300  1
  O  O58  1  0.16378000  0.76845000  0.17105700  1
  O  O59  1  0.66378000  0.23155000  0.32894300  1
  O  O60  1  0.16378000  0.26845000  0.32894300  1
  O  O61  1  0.66378000  0.73155000  0.17105700  1
  O  O62  1  0.83622000  0.23155000  0.82894300  1
  O  O63  1  0.33622000  0.76845000  0.67105700  1
  O  O64  1  0.82001600  0.72995300  0.85346800  1
  O  O65  1  0.32001600  0.27004700  0.64653200  1
  O  O66  1  0.17998400  0.77004700  0.35346800  1
  O  O67  1  0.67998400  0.22995300  0.14653200  1
  O  O68  1  0.17998400  0.27004700  0.14653200  1
  O  O69  1  0.67998400  0.72995300  0.35346800  1
  O  O70  1  0.82001600  0.22995300  0.64653200  1
  O  O71  1  0.32001600  0.77004700  0.85346800  1
