# generated using pymatgen
data_CaLaI5
_symmetry_space_group_name_H-M   'P 1'
_cell_length_a   4.49717700
_cell_length_b   15.19999000
_cell_length_c   18.29752600
_cell_angle_alpha   90.00000000
_cell_angle_beta   90.00000000
_cell_angle_gamma   90.00000000
_symmetry_Int_Tables_number   1
_chemical_formula_structural   CaLaI5
_chemical_formula_sum   'Ca4 La4 I20'
_cell_volume   1250.76481601
_cell_formula_units_Z   4
loop_
 _symmetry_equiv_pos_site_id
 _symmetry_equiv_pos_as_xyz
  1  'x, y, z'
loop_
 _atom_site_type_symbol
 _atom_site_label
 _atom_site_symmetry_multiplicity
 _atom_site_fract_x
 _atom_site_fract_y
 _atom_site_fract_z
 _atom_site_occupancy
  Ca  Ca0  1  0.75000000  0.23896500  0.09194200  1
  Ca  Ca1  1  0.25000000  0.73896500  0.40805800  1
  Ca  Ca2  1  0.75000000  0.26103500  0.59194200  1
  Ca  Ca3  1  0.25000000  0.76103500  0.90805800  1
  La  La4  1  0.75000000  0.74258300  0.15678900  1
  La  La5  1  0.25000000  0.24258300  0.34321100  1
  La  La6  1  0.75000000  0.75741700  0.65678900  1
  La  La7  1  0.25000000  0.25741700  0.84321100  1
  I  I8  1  0.25000000  0.34962600  0.01705100  1
  I  I9  1  0.25000000  0.86146800  0.05917000  1
  I  I10  1  0.25000000  0.59612900  0.15440400  1
  I  I11  1  0.25000000  0.13282600  0.16996500  1
  I  I12  1  0.75000000  0.34924900  0.23859800  1
  I  I13  1  0.25000000  0.84924900  0.26140200  1
  I  I14  1  0.75000000  0.63282600  0.33003500  1
  I  I15  1  0.75000000  0.09612900  0.34559600  1
  I  I16  1  0.75000000  0.36146800  0.44083000  1
  I  I17  1  0.75000000  0.84962600  0.48294900  1
  I  I18  1  0.25000000  0.15037400  0.51705100  1
  I  I19  1  0.25000000  0.63853200  0.55917000  1
  I  I20  1  0.25000000  0.90387100  0.65440400  1
  I  I21  1  0.25000000  0.36717400  0.66996500  1
  I  I22  1  0.75000000  0.15075100  0.73859800  1
  I  I23  1  0.25000000  0.65075100  0.76140200  1
  I  I24  1  0.75000000  0.86717400  0.83003500  1
  I  I25  1  0.75000000  0.40387100  0.84559600  1
  I  I26  1  0.75000000  0.13853200  0.94083000  1
  I  I27  1  0.75000000  0.65037400  0.98294900  1
