# generated using pymatgen
data_LaMgI5
_symmetry_space_group_name_H-M   'P 1'
_cell_length_a   15.30317100
_cell_length_b   7.85809400
_cell_length_c   12.36482522
_cell_angle_alpha   67.74391176
_cell_angle_beta   90.00000000
_cell_angle_gamma   90.00000000
_symmetry_Int_Tables_number   1
_chemical_formula_structural   LaMgI5
_chemical_formula_sum   'La4 Mg4 I20'
_cell_volume   1376.14177707
_cell_formula_units_Z   4
loop_
 _symmetry_equiv_pos_site_id
 _symmetry_equiv_pos_as_xyz
  1  'x, y, z'
loop_
 _atom_site_type_symbol
 _atom_site_label
 _atom_site_symmetry_multiplicity
 _atom_site_fract_x
 _atom_site_fract_y
 _atom_site_fract_z
 _atom_site_occupancy
  La  La0  1  0.74593400  0.96638500  0.87517400  1
  La  La1  1  0.75406600  0.96638500  0.37517400  1
  La  La2  1  0.24593400  0.03361500  0.62482600  1
  La  La3  1  0.25406600  0.03361500  0.12482600  1
  Mg  Mg4  1  0.04911200  0.43968700  0.77334600  1
  Mg  Mg5  1  0.54911200  0.56031300  0.72665400  1
  Mg  Mg6  1  0.45088800  0.43968700  0.27334600  1
  Mg  Mg7  1  0.95088800  0.56031300  0.22665400  1
  I  I8  1  0.06523500  0.82079900  0.70466800  1
  I  I9  1  0.79739600  0.93379800  0.63405500  1
  I  I10  1  0.37547900  0.68976100  0.69742500  1
  I  I11  1  0.89335800  0.67373900  0.99893500  1
  I  I12  1  0.62500400  0.61267700  0.91307000  1
  I  I13  1  0.43476500  0.82079900  0.20466800  1
  I  I14  1  0.70260400  0.93379800  0.13405500  1
  I  I15  1  0.12452100  0.68976100  0.19742500  1
  I  I16  1  0.60664200  0.67373900  0.49893500  1
  I  I17  1  0.87499600  0.61267700  0.41307000  1
  I  I18  1  0.12500400  0.38732300  0.58693000  1
  I  I19  1  0.39335800  0.32626100  0.50106500  1
  I  I20  1  0.87547900  0.31023900  0.80257500  1
  I  I21  1  0.29739600  0.06620200  0.86594500  1
  I  I22  1  0.56523500  0.17920100  0.79533200  1
  I  I23  1  0.37499600  0.38732300  0.08693000  1
  I  I24  1  0.10664200  0.32626100  0.00106500  1
  I  I25  1  0.62452100  0.31023900  0.30257500  1
  I  I26  1  0.20260400  0.06620200  0.36594500  1
  I  I27  1  0.93476500  0.17920100  0.29533200  1
