# generated using pymatgen
data_Mn4P2O9
_symmetry_space_group_name_H-M   'P 1'
_cell_length_a   11.70624100
_cell_length_b   6.77522000
_cell_length_c   9.65328072
_cell_angle_alpha   76.19244220
_cell_angle_beta   90.00000000
_cell_angle_gamma   90.00000000
_symmetry_Int_Tables_number   1
_chemical_formula_structural   Mn4P2O9
_chemical_formula_sum   'Mn16 P8 O36'
_cell_volume   743.50005973
_cell_formula_units_Z   4
loop_
 _symmetry_equiv_pos_site_id
 _symmetry_equiv_pos_as_xyz
  1  'x, y, z'
loop_
 _atom_site_type_symbol
 _atom_site_label
 _atom_site_symmetry_multiplicity
 _atom_site_fract_x
 _atom_site_fract_y
 _atom_site_fract_z
 _atom_site_occupancy
  Mn  Mn0  1  0.40009900  0.95714200  0.88104500  1
  Mn  Mn1  1  0.09990100  0.95714200  0.38104500  1
  Mn  Mn2  1  0.61925000  0.76381100  0.75264900  1
  Mn  Mn3  1  0.39666300  0.81455100  0.53373100  1
  Mn  Mn4  1  0.88075000  0.76381100  0.25264900  1
  Mn  Mn5  1  0.10333700  0.81455100  0.03373100  1
  Mn  Mn6  1  0.86813800  0.53161600  0.67954300  1
  Mn  Mn7  1  0.36813800  0.46838400  0.82045700  1
  Mn  Mn8  1  0.63186200  0.53161600  0.17954300  1
  Mn  Mn9  1  0.13186200  0.46838400  0.32045700  1
  Mn  Mn10  1  0.89666300  0.18544900  0.96626900  1
  Mn  Mn11  1  0.11925000  0.23618900  0.74735100  1
  Mn  Mn12  1  0.60333700  0.18544900  0.46626900  1
  Mn  Mn13  1  0.38075000  0.23618900  0.24735100  1
  Mn  Mn14  1  0.90009900  0.04285800  0.61895500  1
  Mn  Mn15  1  0.59990100  0.04285800  0.11895500  1
  P  P16  1  0.82858400  0.70548900  0.92543300  1
  P  P17  1  0.12982700  0.76082400  0.68470500  1
  P  P18  1  0.67141600  0.70548900  0.42543300  1
  P  P19  1  0.37017300  0.76082400  0.18470500  1
  P  P20  1  0.62982700  0.23917600  0.81529500  1
  P  P21  1  0.32858400  0.29451100  0.57456700  1
  P  P22  1  0.87017300  0.23917600  0.31529500  1
  P  P23  1  0.17141600  0.29451100  0.07456700  1
  O  O24  1  0.12012300  0.89190200  0.79641900  1
  O  O25  1  0.80879400  0.81916900  0.76417300  1
  O  O26  1  0.21279800  0.85999400  0.56015500  1
  O  O27  1  0.44187600  0.75283400  0.76524800  1
  O  O28  1  0.59748700  0.83478400  0.50646800  1
  O  O29  1  0.70476700  0.67352800  0.98381300  1
  O  O30  1  0.37987700  0.89190200  0.29641900  1
  O  O31  1  0.01010400  0.76947300  0.60626800  1
  O  O32  1  0.69120600  0.81916900  0.26417300  1
  O  O33  1  0.28720200  0.85999400  0.06015500  1
  O  O34  1  0.05812400  0.75283400  0.26524800  1
  O  O35  1  0.90251300  0.83478400  0.00646800  1
  O  O36  1  0.79523300  0.67352800  0.48381300  1
  O  O37  1  0.89051800  0.50823200  0.91828000  1
  O  O38  1  0.48989600  0.76947300  0.10626800  1
  O  O39  1  0.16896300  0.54366800  0.75596700  1
  O  O40  1  0.66896300  0.45633200  0.74403300  1
  O  O41  1  0.39051800  0.49176800  0.58172000  1
  O  O42  1  0.60948200  0.50823200  0.41828000  1
  O  O43  1  0.33103700  0.54366800  0.25596700  1
  O  O44  1  0.83103700  0.45633200  0.24403300  1
  O  O45  1  0.51010400  0.23052700  0.89373200  1
  O  O46  1  0.10948200  0.49176800  0.08172000  1
  O  O47  1  0.20476700  0.32647200  0.51618700  1
  O  O48  1  0.09748700  0.16521600  0.99353200  1
  O  O49  1  0.94187600  0.24716600  0.73475200  1
  O  O50  1  0.71279800  0.14000600  0.93984500  1
  O  O51  1  0.30879400  0.18083100  0.73582700  1
  O  O52  1  0.98989600  0.23052700  0.39373200  1
  O  O53  1  0.62012300  0.10809800  0.70358100  1
  O  O54  1  0.29523300  0.32647200  0.01618700  1
  O  O55  1  0.40251300  0.16521600  0.49353200  1
  O  O56  1  0.55812400  0.24716600  0.23475200  1
  O  O57  1  0.78720200  0.14000600  0.43984500  1
  O  O58  1  0.19120600  0.18083100  0.23582700  1
  O  O59  1  0.87987700  0.10809800  0.20358100  1
