# generated using pymatgen
data_Tb2(WO4)3
_symmetry_space_group_name_H-M   'P 1'
_cell_length_a   10.32268800
_cell_length_b   10.19760700
_cell_length_c   17.42915405
_cell_angle_alpha   54.60038632
_cell_angle_beta   90.00000000
_cell_angle_gamma   90.00000000
_symmetry_Int_Tables_number   1
_chemical_formula_structural   Tb2(WO4)3
_chemical_formula_sum   'Tb8 W12 O48'
_cell_volume   1495.53012073
_cell_formula_units_Z   4
loop_
 _symmetry_equiv_pos_site_id
 _symmetry_equiv_pos_as_xyz
  1  'x, y, z'
loop_
 _atom_site_type_symbol
 _atom_site_label
 _atom_site_symmetry_multiplicity
 _atom_site_fract_x
 _atom_site_fract_y
 _atom_site_fract_z
 _atom_site_occupancy
  Tb  Tb0  1  0.97057400  0.13340200  0.11829600  1
  Tb  Tb1  1  0.03365700  0.63739100  0.61800500  1
  Tb  Tb2  1  0.53365700  0.36260900  0.88199500  1
  Tb  Tb3  1  0.47057400  0.86659800  0.38170400  1
  Tb  Tb4  1  0.52942600  0.13340200  0.61829600  1
  Tb  Tb5  1  0.46634300  0.63739100  0.11800500  1
  Tb  Tb6  1  0.96634300  0.36260900  0.38199500  1
  Tb  Tb7  1  0.02942600  0.86659800  0.88170400  1
  W  W8  1  0.74890600  0.97420200  0.49992500  1
  W  W9  1  0.61901000  0.25288200  0.14323300  1
  W  W10  1  0.88056100  0.53508300  0.85738400  1
  W  W11  1  0.38056100  0.46491700  0.64261600  1
  W  W12  1  0.11901000  0.74711800  0.35676700  1
  W  W13  1  0.24890600  0.02579800  0.00007500  1
  W  W14  1  0.75109400  0.97420200  0.99992500  1
  W  W15  1  0.88099000  0.25288200  0.64323300  1
  W  W16  1  0.61943900  0.53508300  0.35738400  1
  W  W17  1  0.11943900  0.46491700  0.14261600  1
  W  W18  1  0.38099000  0.74711800  0.85676700  1
  W  W19  1  0.25109400  0.02579800  0.50007500  1
  O  O20  1  0.09697200  0.29913400  0.13282500  1
  O  O21  1  0.34279800  0.00394000  0.41941800  1
  O  O22  1  0.17479900  0.83542900  0.58782600  1
  O  O23  1  0.41138100  0.56631200  0.86278900  1
  O  O24  1  0.87287300  0.82185700  0.56429000  1
  O  O25  1  0.79004000  0.20134100  0.16475500  1
  O  O26  1  0.71137000  0.52382200  0.83346000  1
  O  O27  1  0.64188300  0.91637700  0.44223800  1
  O  O28  1  0.98082900  0.56585300  0.76278800  1
  O  O29  1  0.52326000  0.08726300  0.23689500  1
  O  O30  1  0.57566500  0.28742600  0.03215500  1
  O  O31  1  0.92707700  0.34968400  0.96699600  1
  O  O32  1  0.42707700  0.65031600  0.53300400  1
  O  O33  1  0.07566500  0.71257400  0.46784500  1
  O  O34  1  0.02326000  0.91273700  0.26310500  1
  O  O35  1  0.48082900  0.43414700  0.73721200  1
  O  O36  1  0.14188300  0.08362300  0.05776200  1
  O  O37  1  0.21137000  0.47617800  0.66654000  1
  O  O38  1  0.29004000  0.79865900  0.33524500  1
  O  O39  1  0.37287300  0.17814300  0.93571000  1
  O  O40  1  0.84279800  0.99606000  0.08058200  1
  O  O41  1  0.91138100  0.43368800  0.63721100  1
  O  O42  1  0.67479900  0.16457100  0.91217400  1
  O  O43  1  0.59697200  0.70086600  0.36717500  1
  O  O44  1  0.40302800  0.29913400  0.63282500  1
  O  O45  1  0.32520100  0.83542900  0.08782600  1
  O  O46  1  0.08861900  0.56631200  0.36278900  1
  O  O47  1  0.15720200  0.00394000  0.91941800  1
  O  O48  1  0.62712700  0.82185700  0.06429000  1
  O  O49  1  0.70996000  0.20134100  0.66475500  1
  O  O50  1  0.78863000  0.52382200  0.33346000  1
  O  O51  1  0.85811700  0.91637700  0.94223800  1
  O  O52  1  0.51917100  0.56585300  0.26278800  1
  O  O53  1  0.97674000  0.08726300  0.73689500  1
  O  O54  1  0.92433500  0.28742600  0.53215500  1
  O  O55  1  0.57292300  0.34968400  0.46699600  1
  O  O56  1  0.07292300  0.65031600  0.03300400  1
  O  O57  1  0.42433500  0.71257400  0.96784500  1
  O  O58  1  0.47674000  0.91273700  0.76310500  1
  O  O59  1  0.01917100  0.43414700  0.23721200  1
  O  O60  1  0.35811700  0.08362300  0.55776200  1
  O  O61  1  0.28863000  0.47617800  0.16654000  1
  O  O62  1  0.20996000  0.79865900  0.83524500  1
  O  O63  1  0.12712700  0.17814300  0.43571000  1
  O  O64  1  0.58861900  0.43368800  0.13721100  1
  O  O65  1  0.82520100  0.16457100  0.41217400  1
  O  O66  1  0.65720200  0.99606000  0.58058200  1
  O  O67  1  0.90302800  0.70086600  0.86717500  1
