# generated using pymatgen
data_MnP2O7
_symmetry_space_group_name_H-M   'P 1'
_cell_length_a   7.83844800
_cell_length_b   7.13042500
_cell_length_c   9.41204883
_cell_angle_alpha   66.94185377
_cell_angle_beta   90.00000000
_cell_angle_gamma   90.00000000
_symmetry_Int_Tables_number   1
_chemical_formula_structural   MnP2O7
_chemical_formula_sum   'Mn4 P8 O28'
_cell_volume   484.02568107
_cell_formula_units_Z   4
loop_
 _symmetry_equiv_pos_site_id
 _symmetry_equiv_pos_as_xyz
  1  'x, y, z'
loop_
 _atom_site_type_symbol
 _atom_site_label
 _atom_site_symmetry_multiplicity
 _atom_site_fract_x
 _atom_site_fract_y
 _atom_site_fract_z
 _atom_site_occupancy
  Mn  Mn0  1  0.00000000  0.50000000  0.50000000  1
  Mn  Mn1  1  0.00000000  0.00000000  0.00000000  1
  Mn  Mn2  1  0.50000000  0.00000000  0.50000000  1
  Mn  Mn3  1  0.50000000  0.50000000  0.00000000  1
  P  P4  1  0.74774400  0.65739500  0.20594600  1
  P  P5  1  0.24774400  0.34260500  0.29405400  1
  P  P6  1  0.82168300  0.06864200  0.68076200  1
  P  P7  1  0.32168300  0.93135800  0.81923800  1
  P  P8  1  0.67831700  0.06864200  0.18076200  1
  P  P9  1  0.17831700  0.93135800  0.31923800  1
  P  P10  1  0.75225600  0.65739500  0.70594600  1
  P  P11  1  0.25225600  0.34260500  0.79405400  1
  O  O12  1  0.90196600  0.73558600  0.09927800  1
  O  O13  1  0.79540400  0.55072300  0.37677300  1
  O  O14  1  0.13704100  0.49049700  0.33449600  1
  O  O15  1  0.63704100  0.50950300  0.16550400  1
  O  O16  1  0.37462900  0.15249500  0.81370400  1
  O  O17  1  0.29540400  0.44927700  0.12322700  1
  O  O18  1  0.95792300  0.21026600  0.57617100  1
  O  O19  1  0.82021000  0.06084500  0.84591700  1
  O  O20  1  0.40196600  0.26441400  0.40072200  1
  O  O21  1  0.63926500  0.11183600  0.61627000  1
  O  O22  1  0.13926500  0.88816400  0.88373000  1
  O  O23  1  0.12537100  0.15249500  0.31370400  1
  O  O24  1  0.32021000  0.93915500  0.65408300  1
  O  O25  1  0.45792300  0.78973400  0.92382900  1
  O  O26  1  0.54207700  0.21026600  0.07617100  1
  O  O27  1  0.67979000  0.06084500  0.34591700  1
  O  O28  1  0.87462900  0.84750500  0.68629600  1
  O  O29  1  0.86073500  0.11183600  0.11627000  1
  O  O30  1  0.36073500  0.88816400  0.38373000  1
  O  O31  1  0.59803400  0.73558600  0.59927800  1
  O  O32  1  0.17979000  0.93915500  0.15408300  1
  O  O33  1  0.04207700  0.78973400  0.42382900  1
  O  O34  1  0.70459600  0.55072300  0.87677300  1
  O  O35  1  0.62537100  0.84750500  0.18629600  1
  O  O36  1  0.36295900  0.49049700  0.83449600  1
  O  O37  1  0.86295900  0.50950300  0.66550400  1
  O  O38  1  0.20459600  0.44927700  0.62322700  1
  O  O39  1  0.09803400  0.26441400  0.90072200  1
