# generated using pymatgen
data_Mn2PO5
_symmetry_space_group_name_H-M   'P 1'
_cell_length_a   6.27040400
_cell_length_b   7.84756700
_cell_length_c   8.17985200
_cell_angle_alpha   90.00000000
_cell_angle_beta   90.00000000
_cell_angle_gamma   90.00000000
_symmetry_Int_Tables_number   1
_chemical_formula_structural   Mn2PO5
_chemical_formula_sum   'Mn8 P4 O20'
_cell_volume   402.50937615
_cell_formula_units_Z   4
loop_
 _symmetry_equiv_pos_site_id
 _symmetry_equiv_pos_as_xyz
  1  'x, y, z'
loop_
 _atom_site_type_symbol
 _atom_site_label
 _atom_site_symmetry_multiplicity
 _atom_site_fract_x
 _atom_site_fract_y
 _atom_site_fract_z
 _atom_site_occupancy
  Mn  Mn0  1  0.00000000  0.00000000  0.00000000  1
  Mn  Mn1  1  0.50000000  0.00000000  0.00000000  1
  Mn  Mn2  1  0.25000000  0.13033600  0.34425600  1
  Mn  Mn3  1  0.25000000  0.36966400  0.84425600  1
  Mn  Mn4  1  0.00000000  0.50000000  0.50000000  1
  Mn  Mn5  1  0.50000000  0.50000000  0.50000000  1
  Mn  Mn6  1  0.75000000  0.63033600  0.15574400  1
  Mn  Mn7  1  0.75000000  0.86966400  0.65574400  1
  P  P8  1  0.75000000  0.16030900  0.32810200  1
  P  P9  1  0.75000000  0.33969100  0.82810200  1
  P  P10  1  0.25000000  0.66030900  0.17189800  1
  P  P11  1  0.25000000  0.83969100  0.67189800  1
  O  O12  1  0.75000000  0.04874800  0.47858400  1
  O  O13  1  0.95406900  0.12959000  0.22183100  1
  O  O14  1  0.54593100  0.12959000  0.22183100  1
  O  O15  1  0.75000000  0.14667100  0.87717400  1
  O  O16  1  0.25000000  0.13860600  0.95915200  1
  O  O17  1  0.25000000  0.36139400  0.45915200  1
  O  O18  1  0.75000000  0.35332900  0.37717400  1
  O  O19  1  0.54593100  0.37041000  0.72183100  1
  O  O20  1  0.95406900  0.37041000  0.72183100  1
  O  O21  1  0.75000000  0.45125200  0.97858400  1
  O  O22  1  0.25000000  0.54874800  0.02141600  1
  O  O23  1  0.04593100  0.62959000  0.27816900  1
  O  O24  1  0.45406900  0.62959000  0.27816900  1
  O  O25  1  0.25000000  0.64667100  0.62282600  1
  O  O26  1  0.75000000  0.63860600  0.54084800  1
  O  O27  1  0.75000000  0.86139400  0.04084800  1
  O  O28  1  0.25000000  0.85332900  0.12282600  1
  O  O29  1  0.04593100  0.87041000  0.77816900  1
  O  O30  1  0.45406900  0.87041000  0.77816900  1
  O  O31  1  0.25000000  0.95125200  0.52141600  1
