# generated using pymatgen
data_Mn3(PO4)2
_symmetry_space_group_name_H-M   'P 1'
_cell_length_a   11.62096400
_cell_length_b   6.34730700
_cell_length_c   9.00104880
_cell_angle_alpha   80.72364501
_cell_angle_beta   90.00000000
_cell_angle_gamma   90.00000000
_symmetry_Int_Tables_number   1
_chemical_formula_structural   Mn3(PO4)2
_chemical_formula_sum   'Mn12 P8 O32'
_cell_volume   655.25108561
_cell_formula_units_Z   4
loop_
 _symmetry_equiv_pos_site_id
 _symmetry_equiv_pos_as_xyz
  1  'x, y, z'
loop_
 _atom_site_type_symbol
 _atom_site_label
 _atom_site_symmetry_multiplicity
 _atom_site_fract_x
 _atom_site_fract_y
 _atom_site_fract_z
 _atom_site_occupancy
  Mn  Mn0  1  0.38334300  0.36253900  0.06681100  1
  Mn  Mn1  1  0.11665700  0.86253900  0.06681100  1
  Mn  Mn2  1  0.07692800  0.33347200  0.27439300  1
  Mn  Mn3  1  0.42307200  0.83347200  0.27439300  1
  Mn  Mn4  1  0.69339900  0.37763300  0.36439300  1
  Mn  Mn5  1  0.80660100  0.87763300  0.36439300  1
  Mn  Mn6  1  0.19339900  0.12236700  0.63560700  1
  Mn  Mn7  1  0.30660100  0.62236700  0.63560700  1
  Mn  Mn8  1  0.57692800  0.16652800  0.72560700  1
  Mn  Mn9  1  0.92307200  0.66652800  0.72560700  1
  Mn  Mn10  1  0.88334300  0.13746100  0.93318900  1
  Mn  Mn11  1  0.61665700  0.63746100  0.93318900  1
  P  P12  1  0.63654300  0.11176400  0.09159500  1
  P  P13  1  0.86345700  0.61176400  0.09159500  1
  P  P14  1  0.41239900  0.30674900  0.39547500  1
  P  P15  1  0.08760100  0.80674900  0.39547500  1
  P  P16  1  0.91239900  0.19325100  0.60452500  1
  P  P17  1  0.58760100  0.69325100  0.60452500  1
  P  P18  1  0.13654300  0.38823600  0.90840500  1
  P  P19  1  0.36345700  0.88823600  0.90840500  1
  O  O20  1  0.20338800  0.39666300  0.05769100  1
  O  O21  1  0.56553100  0.32418100  0.07229200  1
  O  O22  1  0.29661200  0.89666300  0.05769100  1
  O  O23  1  0.93446900  0.82418100  0.07229200  1
  O  O24  1  0.93613700  0.40740000  0.13002000  1
  O  O25  1  0.56386300  0.90740000  0.13002000  1
  O  O26  1  0.72292400  0.12756400  0.22256700  1
  O  O27  1  0.08594600  0.01306100  0.27501600  1
  O  O28  1  0.77707600  0.62756400  0.22256700  1
  O  O29  1  0.37383400  0.13344200  0.30198800  1
  O  O30  1  0.41405400  0.51306100  0.27501600  1
  O  O31  1  0.12616600  0.63344200  0.30198800  1
  O  O32  1  0.53364300  0.26042100  0.46757400  1
  O  O33  1  0.82217300  0.17129500  0.48064700  1
  O  O34  1  0.96635700  0.76042100  0.46757400  1
  O  O35  1  0.32217300  0.32870500  0.51935300  1
  O  O36  1  0.67782700  0.67129500  0.48064700  1
  O  O37  1  0.03364300  0.23957900  0.53242600  1
  O  O38  1  0.17782700  0.82870500  0.51935300  1
  O  O39  1  0.46635700  0.73957900  0.53242600  1
  O  O40  1  0.87383400  0.36655800  0.69801200  1
  O  O41  1  0.58594600  0.48693900  0.72498400  1
  O  O42  1  0.62616600  0.86655800  0.69801200  1
  O  O43  1  0.22292400  0.37243600  0.77743300  1
  O  O44  1  0.91405400  0.98693900  0.72498400  1
  O  O45  1  0.27707600  0.87243600  0.77743300  1
  O  O46  1  0.43613700  0.09260000  0.86998000  1
  O  O47  1  0.06386300  0.59260000  0.86998000  1
  O  O48  1  0.06553100  0.17581900  0.92770800  1
  O  O49  1  0.70338800  0.10333700  0.94230900  1
  O  O50  1  0.43446900  0.67581900  0.92770800  1
  O  O51  1  0.79661200  0.60333700  0.94230900  1
