# generated using pymatgen
data_FeH12(SO7)2
_symmetry_space_group_name_H-M   'P 1'
_cell_length_a   12.55051000
_cell_length_b   6.28916900
_cell_length_c   9.03744163
_cell_angle_alpha   72.67358374
_cell_angle_beta   90.00000000
_cell_angle_gamma   90.00000000
_symmetry_Int_Tables_number   1
_chemical_formula_structural   FeH12(SO7)2
_chemical_formula_sum   'Fe2 H24 S4 O28'
_cell_volume   680.97678694
_cell_formula_units_Z   2
loop_
 _symmetry_equiv_pos_site_id
 _symmetry_equiv_pos_as_xyz
  1  'x, y, z'
loop_
 _atom_site_type_symbol
 _atom_site_label
 _atom_site_symmetry_multiplicity
 _atom_site_fract_x
 _atom_site_fract_y
 _atom_site_fract_z
 _atom_site_occupancy
  Fe  Fe0  1  0.00000000  0.00000000  0.00000000  1
  Fe  Fe1  1  0.50000000  0.00000000  0.50000000  1
  H  H2  1  0.06077000  0.33461300  0.10184500  1
  H  H3  1  0.86018800  0.67669400  0.03560000  1
  H  H4  1  0.40534000  0.06321600  0.22122300  1
  H  H5  1  0.63367200  0.08645200  0.25938800  1
  H  H6  1  0.31500200  0.00357400  0.35448400  1
  H  H7  1  0.09921800  0.67506200  0.21148100  1
  H  H8  1  0.59921800  0.32493800  0.28851900  1
  H  H9  1  0.81500200  0.99642600  0.14551600  1
  H  H10  1  0.13367200  0.91354800  0.24061200  1
  H  H11  1  0.90534000  0.93678400  0.27877700  1
  H  H12  1  0.36018800  0.32330600  0.46440000  1
  H  H13  1  0.56077000  0.66538700  0.39815500  1
  H  H14  1  0.43923000  0.33461300  0.60184500  1
  H  H15  1  0.63981200  0.67669400  0.53560000  1
  H  H16  1  0.09466000  0.06321600  0.72122300  1
  H  H17  1  0.86632800  0.08645200  0.75938800  1
  H  H18  1  0.18499800  0.00357400  0.85448400  1
  H  H19  1  0.40078200  0.67506200  0.71148100  1
  H  H20  1  0.90078200  0.32493800  0.78851900  1
  H  H21  1  0.68499800  0.99642600  0.64551600  1
  H  H22  1  0.36632800  0.91354800  0.74061200  1
  H  H23  1  0.59466000  0.93678400  0.77877700  1
  H  H24  1  0.13981200  0.32330600  0.96440000  1
  H  H25  1  0.93923000  0.66538700  0.89815500  1
  S  S26  1  0.64664700  0.74225300  0.10617900  1
  S  S27  1  0.14664700  0.25774700  0.39382100  1
  S  S28  1  0.85335300  0.74225300  0.60617900  1
  S  S29  1  0.35335300  0.25774700  0.89382100  1
  O  O30  1  0.06425100  0.29177800  0.00338300  1
  O  O31  1  0.41987500  0.19278900  0.03541500  1
  O  O32  1  0.89280300  0.01216400  0.16524700  1
  O  O33  1  0.73806800  0.60926800  0.07902700  1
  O  O34  1  0.68570900  0.94421100  0.14544600  1
  O  O35  1  0.10663500  0.84032400  0.16354700  1
  O  O36  1  0.08173500  0.39981000  0.26264700  1
  O  O37  1  0.58173500  0.60019000  0.23735300  1
  O  O38  1  0.60663500  0.15967600  0.33645300  1
  O  O39  1  0.18570900  0.05578900  0.35455400  1
  O  O40  1  0.23806800  0.39073200  0.42097300  1
  O  O41  1  0.39280300  0.98783600  0.33475300  1
  O  O42  1  0.43574900  0.29177800  0.50338300  1
  O  O43  1  0.08012500  0.19278900  0.53541500  1
  O  O44  1  0.91987500  0.80721100  0.46458500  1
  O  O45  1  0.56425100  0.70822200  0.49661700  1
  O  O46  1  0.60719700  0.01216400  0.66524700  1
  O  O47  1  0.76193200  0.60926800  0.57902700  1
  O  O48  1  0.81429100  0.94421100  0.64544600  1
  O  O49  1  0.39336500  0.84032400  0.66354700  1
  O  O50  1  0.41826500  0.39981000  0.76264700  1
  O  O51  1  0.91826500  0.60019000  0.73735300  1
  O  O52  1  0.89336500  0.15967600  0.83645300  1
  O  O53  1  0.31429100  0.05578900  0.85455400  1
  O  O54  1  0.26193200  0.39073200  0.92097300  1
  O  O55  1  0.10719700  0.98783600  0.83475300  1
  O  O56  1  0.58012500  0.80721100  0.96458500  1
  O  O57  1  0.93574900  0.70822200  0.99661700  1
