# generated using pymatgen
data_Li8ZrO6
_symmetry_space_group_name_H-M   'P 1'
_cell_length_a   5.74965946
_cell_length_b   5.74965946
_cell_length_c   10.90589100
_cell_angle_alpha   90.00000000
_cell_angle_beta   90.00000000
_cell_angle_gamma   119.99999379
_symmetry_Int_Tables_number   1
_chemical_formula_structural   Li8ZrO6
_chemical_formula_sum   'Li16 Zr2 O12'
_cell_volume   312.23102728
_cell_formula_units_Z   2
loop_
 _symmetry_equiv_pos_site_id
 _symmetry_equiv_pos_as_xyz
  1  'x, y, z'
loop_
 _atom_site_type_symbol
 _atom_site_label
 _atom_site_symmetry_multiplicity
 _atom_site_fract_x
 _atom_site_fract_y
 _atom_site_fract_z
 _atom_site_occupancy
  Li  Li0  1  0.00000000  0.67602300  0.76829500  1
  Li  Li1  1  0.00000000  0.59068000  0.12726800  1
  Li  Li2  1  0.00000000  0.40932000  0.62726800  1
  Li  Li3  1  0.00000000  0.32397700  0.26829500  1
  Li  Li4  1  0.33333300  0.66666700  0.40699700  1
  Li  Li5  1  0.33333300  0.66666700  0.90699700  1
  Li  Li6  1  0.32397700  0.32397700  0.76829500  1
  Li  Li7  1  0.40932000  0.40932000  0.12726800  1
  Li  Li8  1  0.59068000  0.59068000  0.62726800  1
  Li  Li9  1  0.32397700  0.00000000  0.26829500  1
  Li  Li10  1  0.67602300  0.67602300  0.26829500  1
  Li  Li11  1  0.40932000  0.00000000  0.62726800  1
  Li  Li12  1  0.66666700  0.33333300  0.90699700  1
  Li  Li13  1  0.66666700  0.33333300  0.40699700  1
  Li  Li14  1  0.59068000  0.00000000  0.12726800  1
  Li  Li15  1  0.67602300  0.00000000  0.76829500  1
  Zr  Zr16  1  0.00000000  0.00000000  0.99459800  1
  Zr  Zr17  1  0.00000000  0.00000000  0.49459800  1
  O  O18  1  0.00000000  0.66594000  0.94852300  1
  O  O19  1  0.00000000  0.33406000  0.44852300  1
  O  O20  1  0.33333300  0.66666700  0.21276600  1
  O  O21  1  0.00000000  0.00000000  0.17925400  1
  O  O22  1  0.00000000  0.00000000  0.67925400  1
  O  O23  1  0.33333300  0.66666700  0.71276600  1
  O  O24  1  0.33406000  0.33406000  0.94852300  1
  O  O25  1  0.33406000  0.00000000  0.44852300  1
  O  O26  1  0.66594000  0.66594000  0.44852300  1
  O  O27  1  0.66666700  0.33333300  0.71276600  1
  O  O28  1  0.66666700  0.33333300  0.21276600  1
  O  O29  1  0.66594000  0.00000000  0.94852300  1
