# generated using pymatgen
data_Ga2WO6
_symmetry_space_group_name_H-M   'P 1'
_cell_length_a   4.56930400
_cell_length_b   5.00002700
_cell_length_c   16.88223300
_cell_angle_alpha   90.00000000
_cell_angle_beta   90.00000000
_cell_angle_gamma   90.00000000
_symmetry_Int_Tables_number   1
_chemical_formula_structural   Ga2WO6
_chemical_formula_sum   'Ga8 W4 O24'
_cell_volume   385.70235666
_cell_formula_units_Z   4
loop_
 _symmetry_equiv_pos_site_id
 _symmetry_equiv_pos_as_xyz
  1  'x, y, z'
loop_
 _atom_site_type_symbol
 _atom_site_label
 _atom_site_symmetry_multiplicity
 _atom_site_fract_x
 _atom_site_fract_y
 _atom_site_fract_z
 _atom_site_occupancy
  Ga  Ga0  1  0.00000000  0.25000000  0.05363100  1
  Ga  Ga1  1  0.00000000  0.75000000  0.27544400  1
  Ga  Ga2  1  0.00000000  0.25000000  0.72455600  1
  Ga  Ga3  1  0.00000000  0.75000000  0.94636900  1
  Ga  Ga4  1  0.50000000  0.25000000  0.22455600  1
  Ga  Ga5  1  0.50000000  0.25000000  0.55363100  1
  Ga  Ga6  1  0.50000000  0.75000000  0.77544400  1
  Ga  Ga7  1  0.50000000  0.75000000  0.44636900  1
  W  W8  1  0.00000000  0.25000000  0.38507700  1
  W  W9  1  0.00000000  0.75000000  0.61492300  1
  W  W10  1  0.50000000  0.25000000  0.88507700  1
  W  W11  1  0.50000000  0.75000000  0.11492300  1
  O  O12  1  0.23430600  0.59225000  0.03978700  1
  O  O13  1  0.23430600  0.09225000  0.96021300  1
  O  O14  1  0.27350400  0.57768300  0.20299000  1
  O  O15  1  0.27350400  0.07768300  0.79701000  1
  O  O16  1  0.22997600  0.57206000  0.37366600  1
  O  O17  1  0.22997600  0.07206000  0.62633400  1
  O  O18  1  0.27002400  0.07206000  0.12633400  1
  O  O19  1  0.27002400  0.57206000  0.87366600  1
  O  O20  1  0.22649600  0.07768300  0.29701000  1
  O  O21  1  0.22649600  0.57768300  0.70299000  1
  O  O22  1  0.26569400  0.09225000  0.46021300  1
  O  O23  1  0.26569400  0.59225000  0.53978700  1
  O  O24  1  0.73430600  0.40775000  0.46021300  1
  O  O25  1  0.73430600  0.90775000  0.53978700  1
  O  O26  1  0.77350400  0.42231700  0.29701000  1
  O  O27  1  0.77350400  0.92231700  0.70299000  1
  O  O28  1  0.72997600  0.42794000  0.12633400  1
  O  O29  1  0.72997600  0.92794000  0.87366600  1
  O  O30  1  0.77002400  0.42794000  0.62633400  1
  O  O31  1  0.77002400  0.92794000  0.37366600  1
  O  O32  1  0.72649600  0.92231700  0.20299000  1
  O  O33  1  0.72649600  0.42231700  0.79701000  1
  O  O34  1  0.76569400  0.90775000  0.03978700  1
  O  O35  1  0.76569400  0.40775000  0.96021300  1
