# generated using pymatgen
data_Gd3TaO7
_symmetry_space_group_name_H-M   'P 1'
_cell_length_a   7.57195100
_cell_length_b   7.61344200
_cell_length_c   10.75702600
_cell_angle_alpha   90.00000000
_cell_angle_beta   90.00000000
_cell_angle_gamma   90.00000000
_symmetry_Int_Tables_number   1
_chemical_formula_structural   Gd3TaO7
_chemical_formula_sum   'Gd12 Ta4 O28'
_cell_volume   620.12759411
_cell_formula_units_Z   4
loop_
 _symmetry_equiv_pos_site_id
 _symmetry_equiv_pos_as_xyz
  1  'x, y, z'
loop_
 _atom_site_type_symbol
 _atom_site_label
 _atom_site_symmetry_multiplicity
 _atom_site_fract_x
 _atom_site_fract_y
 _atom_site_fract_z
 _atom_site_occupancy
  Gd  Gd0  1  0.01149000  0.79140300  0.25000000  1
  Gd  Gd1  1  0.25221000  0.96591900  0.52018200  1
  Gd  Gd2  1  0.25221000  0.96591900  0.97981800  1
  Gd  Gd3  1  0.24779000  0.46591900  0.02018200  1
  Gd  Gd4  1  0.24779000  0.46591900  0.47981800  1
  Gd  Gd5  1  0.48851000  0.29140300  0.75000000  1
  Gd  Gd6  1  0.51149000  0.70859700  0.25000000  1
  Gd  Gd7  1  0.75221000  0.53408100  0.52018200  1
  Gd  Gd8  1  0.75221000  0.53408100  0.97981800  1
  Gd  Gd9  1  0.74779000  0.03408100  0.02018200  1
  Gd  Gd10  1  0.74779000  0.03408100  0.47981800  1
  Gd  Gd11  1  0.98851000  0.20859700  0.75000000  1
  Ta  Ta12  1  0.99878700  0.74873300  0.75000000  1
  Ta  Ta13  1  0.50121300  0.24873300  0.25000000  1
  Ta  Ta14  1  0.49878700  0.75126700  0.75000000  1
  Ta  Ta15  1  0.00121300  0.25126700  0.25000000  1
  O  O16  1  0.03419700  0.04873700  0.12565700  1
  O  O17  1  0.03419700  0.04873700  0.37434300  1
  O  O18  1  0.03790300  0.58324200  0.61446400  1
  O  O19  1  0.03790300  0.58324200  0.88553600  1
  O  O20  1  0.24815100  0.32623700  0.25000000  1
  O  O21  1  0.25479300  0.73160200  0.11674400  1
  O  O22  1  0.25479300  0.73160200  0.38325600  1
  O  O23  1  0.24520700  0.23160200  0.61674400  1
  O  O24  1  0.24520700  0.23160200  0.88325600  1
  O  O25  1  0.25184900  0.82623700  0.75000000  1
  O  O26  1  0.46209700  0.08324200  0.11446400  1
  O  O27  1  0.46209700  0.08324200  0.38553600  1
  O  O28  1  0.46580300  0.54873700  0.62565700  1
  O  O29  1  0.46580300  0.54873700  0.87434300  1
  O  O30  1  0.53419700  0.45126300  0.12565700  1
  O  O31  1  0.53419700  0.45126300  0.37434300  1
  O  O32  1  0.53790300  0.91675800  0.61446400  1
  O  O33  1  0.53790300  0.91675800  0.88553600  1
  O  O34  1  0.74815100  0.17376300  0.25000000  1
  O  O35  1  0.75479300  0.76839800  0.11674400  1
  O  O36  1  0.75479300  0.76839800  0.38325600  1
  O  O37  1  0.74520700  0.26839800  0.61674400  1
  O  O38  1  0.74520700  0.26839800  0.88325600  1
  O  O39  1  0.75184900  0.67376300  0.75000000  1
  O  O40  1  0.96209700  0.41675800  0.11446400  1
  O  O41  1  0.96209700  0.41675800  0.38553600  1
  O  O42  1  0.96580300  0.95126300  0.62565700  1
  O  O43  1  0.96580300  0.95126300  0.87434300  1
