# generated using pymatgen
data_Ce(WO4)2
_symmetry_space_group_name_H-M   'P 1'
_cell_length_a   9.68151600
_cell_length_b   9.68151600
_cell_length_c   9.68151600
_cell_angle_alpha   90.00000000
_cell_angle_beta   90.00000000
_cell_angle_gamma   90.00000000
_symmetry_Int_Tables_number   1
_chemical_formula_structural   Ce(WO4)2
_chemical_formula_sum   'Ce4 W8 O32'
_cell_volume   907.46545726
_cell_formula_units_Z   4
loop_
 _symmetry_equiv_pos_site_id
 _symmetry_equiv_pos_as_xyz
  1  'x, y, z'
loop_
 _atom_site_type_symbol
 _atom_site_label
 _atom_site_symmetry_multiplicity
 _atom_site_fract_x
 _atom_site_fract_y
 _atom_site_fract_z
 _atom_site_occupancy
  Ce  Ce0  1  0.24784800  0.25215200  0.74784800  1
  Ce  Ce1  1  0.25215200  0.74784800  0.24784800  1
  Ce  Ce2  1  0.74784800  0.24784800  0.25215200  1
  Ce  Ce3  1  0.75215200  0.75215200  0.75215200  1
  W  W4  1  0.09134800  0.09134800  0.09134800  1
  W  W5  1  0.15032000  0.65032000  0.84968000  1
  W  W6  1  0.34968000  0.34968000  0.34968000  1
  W  W7  1  0.40865200  0.90865200  0.59134800  1
  W  W8  1  0.59134800  0.40865200  0.90865200  1
  W  W9  1  0.65032000  0.84968000  0.15032000  1
  W  W10  1  0.84968000  0.15032000  0.65032000  1
  W  W11  1  0.90865200  0.59134800  0.40865200  1
  O  O12  1  0.01322600  0.48677400  0.51322600  1
  O  O13  1  0.03140000  0.19204000  0.67937400  1
  O  O14  1  0.03804800  0.69513600  0.31382800  1
  O  O15  1  0.17937400  0.46860000  0.80796000  1
  O  O16  1  0.18617200  0.96195200  0.19513600  1
  O  O17  1  0.19204000  0.67937400  0.03140000  1
  O  O18  1  0.19513600  0.18617200  0.96195200  1
  O  O19  1  0.24376800  0.24376800  0.24376800  1
  O  O20  1  0.25623200  0.75623200  0.74376800  1
  O  O21  1  0.30486400  0.81382800  0.46195200  1
  O  O22  1  0.30796000  0.32062600  0.53140000  1
  O  O23  1  0.31382800  0.03804800  0.69513600  1
  O  O24  1  0.32062600  0.53140000  0.30796000  1
  O  O25  1  0.46195200  0.30486400  0.81382800  1
  O  O26  1  0.46860000  0.80796000  0.17937400  1
  O  O27  1  0.48677400  0.51322600  0.01322600  1
  O  O28  1  0.51322600  0.01322600  0.48677400  1
  O  O29  1  0.53140000  0.30796000  0.32062600  1
  O  O30  1  0.53804800  0.80486400  0.68617200  1
  O  O31  1  0.67937400  0.03140000  0.19204000  1
  O  O32  1  0.68617200  0.53804800  0.80486400  1
  O  O33  1  0.69204000  0.82062600  0.96860000  1
  O  O34  1  0.69513600  0.31382800  0.03804800  1
  O  O35  1  0.74376800  0.25623200  0.75623200  1
  O  O36  1  0.75623200  0.74376800  0.25623200  1
  O  O37  1  0.80486400  0.68617200  0.53804800  1
  O  O38  1  0.80796000  0.17937400  0.46860000  1
  O  O39  1  0.81382800  0.46195200  0.30486400  1
  O  O40  1  0.82062600  0.96860000  0.69204000  1
  O  O41  1  0.96195200  0.19513600  0.18617200  1
  O  O42  1  0.96860000  0.69204000  0.82062600  1
  O  O43  1  0.98677400  0.98677400  0.98677400  1
