# generated using pymatgen
data_La2Cd2O5
_symmetry_space_group_name_H-M   'P 1'
_cell_length_a   6.02277000
_cell_length_b   6.22144400
_cell_length_c   16.04817400
_cell_angle_alpha   90.00000000
_cell_angle_beta   90.00000000
_cell_angle_gamma   90.00000000
_symmetry_Int_Tables_number   1
_chemical_formula_structural   La2Cd2O5
_chemical_formula_sum   'La8 Cd8 O20'
_cell_volume   601.33031598
_cell_formula_units_Z   4
loop_
 _symmetry_equiv_pos_site_id
 _symmetry_equiv_pos_as_xyz
  1  'x, y, z'
loop_
 _atom_site_type_symbol
 _atom_site_label
 _atom_site_symmetry_multiplicity
 _atom_site_fract_x
 _atom_site_fract_y
 _atom_site_fract_z
 _atom_site_occupancy
  La  La0  1  0.49268100  0.93793100  0.11582400  1
  La  La1  1  0.49268100  0.93793100  0.38417600  1
  La  La2  1  0.99268100  0.56206900  0.61582400  1
  La  La3  1  0.99268100  0.56206900  0.88417600  1
  La  La4  1  0.00731900  0.43793100  0.11582400  1
  La  La5  1  0.00731900  0.43793100  0.38417600  1
  La  La6  1  0.50731900  0.06206900  0.61582400  1
  La  La7  1  0.50731900  0.06206900  0.88417600  1
  Cd  Cd8  1  0.00000000  0.00000000  0.00000000  1
  Cd  Cd9  1  0.00000000  0.00000000  0.50000000  1
  Cd  Cd10  1  0.02357900  0.07228100  0.75000000  1
  Cd  Cd11  1  0.52357900  0.42771900  0.25000000  1
  Cd  Cd12  1  0.50000000  0.50000000  0.00000000  1
  Cd  Cd13  1  0.50000000  0.50000000  0.50000000  1
  Cd  Cd14  1  0.47642100  0.57228100  0.75000000  1
  Cd  Cd15  1  0.97642100  0.92771900  0.25000000  1
  O  O16  1  0.13525700  0.07349800  0.14025600  1
  O  O17  1  0.13525700  0.07349800  0.35974400  1
  O  O18  1  0.62139900  0.07231000  0.25000000  1
  O  O19  1  0.18351000  0.31254500  0.53518700  1
  O  O20  1  0.18351000  0.31254500  0.96481300  1
  O  O21  1  0.68351000  0.18745500  0.46481300  1
  O  O22  1  0.68351000  0.18745500  0.03518700  1
  O  O23  1  0.12139900  0.42769000  0.75000000  1
  O  O24  1  0.63525700  0.42650200  0.64025600  1
  O  O25  1  0.63525700  0.42650200  0.85974400  1
  O  O26  1  0.36474300  0.57349800  0.14025600  1
  O  O27  1  0.36474300  0.57349800  0.35974400  1
  O  O28  1  0.87860100  0.57231000  0.25000000  1
  O  O29  1  0.31649000  0.81254500  0.96481300  1
  O  O30  1  0.31649000  0.81254500  0.53518700  1
  O  O31  1  0.81649000  0.68745500  0.03518700  1
  O  O32  1  0.81649000  0.68745500  0.46481300  1
  O  O33  1  0.37860100  0.92769000  0.75000000  1
  O  O34  1  0.86474300  0.92650200  0.64025600  1
  O  O35  1  0.86474300  0.92650200  0.85974400  1
