# generated using pymatgen
data_VPO5
_symmetry_space_group_name_H-M   'P 1'
_cell_length_a   6.23487000
_cell_length_b   10.61502900
_cell_length_c   12.58010800
_cell_angle_alpha   90.00000000
_cell_angle_beta   90.00000000
_cell_angle_gamma   90.00000000
_symmetry_Int_Tables_number   1
_chemical_formula_structural   VPO5
_chemical_formula_sum   'V8 P8 O40'
_cell_volume   832.59338713
_cell_formula_units_Z   8
loop_
 _symmetry_equiv_pos_site_id
 _symmetry_equiv_pos_as_xyz
  1  'x, y, z'
loop_
 _atom_site_type_symbol
 _atom_site_label
 _atom_site_symmetry_multiplicity
 _atom_site_fract_x
 _atom_site_fract_y
 _atom_site_fract_z
 _atom_site_occupancy
  V  V0  1  0.00060100  0.49703300  0.11572900  1
  V  V1  1  0.27334000  0.25345700  0.25020000  1
  V  V2  1  0.77334000  0.75345700  0.24980000  1
  V  V3  1  0.50060100  0.99703300  0.38427100  1
  V  V4  1  0.49939900  0.49703300  0.61572900  1
  V  V5  1  0.22666000  0.25345700  0.75020000  1
  V  V6  1  0.72666000  0.75345700  0.74980000  1
  V  V7  1  0.99939900  0.99703300  0.88427100  1
  P  P8  1  0.83724500  0.75961800  0.00296500  1
  P  P9  1  0.49593300  0.51767600  0.18607300  1
  P  P10  1  0.99593300  0.01767600  0.31392700  1
  P  P11  1  0.33724500  0.25961800  0.49703500  1
  P  P12  1  0.66275500  0.75961800  0.50296500  1
  P  P13  1  0.00406700  0.51767600  0.68607300  1
  P  P14  1  0.50406700  0.01767600  0.81392700  1
  P  P15  1  0.16275500  0.25961800  0.99703500  1
  O  O16  1  0.02356500  0.38337500  0.00680600  1
  O  O17  1  0.98045700  0.64494600  0.01344800  1
  O  O18  1  0.30497800  0.24971700  0.09774400  1
  O  O19  1  0.69615200  0.78150900  0.10314200  1
  O  O20  1  0.69321000  0.49362100  0.11420700  1
  O  O21  1  0.29988400  0.54420700  0.11426600  1
  O  O22  1  0.03679300  0.39645000  0.21578700  1
  O  O23  1  0.95883000  0.64637800  0.22122100  1
  O  O24  1  0.95392900  0.90053000  0.24371500  1
  O  O25  1  0.04183600  0.13452500  0.24254500  1
  O  O26  1  0.54183600  0.63452500  0.25745500  1
  O  O27  1  0.45392900  0.40053000  0.25628500  1
  O  O28  1  0.45883000  0.14637800  0.27877900  1
  O  O29  1  0.53679300  0.89645000  0.28421300  1
  O  O30  1  0.79988400  0.04420700  0.38573400  1
  O  O31  1  0.19321000  0.99362100  0.38579300  1
  O  O32  1  0.19615200  0.28150900  0.39685800  1
  O  O33  1  0.80497800  0.74971700  0.40225600  1
  O  O34  1  0.48045700  0.14494600  0.48655200  1
  O  O35  1  0.52356500  0.88337500  0.49319400  1
  O  O36  1  0.47643500  0.38337500  0.50680600  1
  O  O37  1  0.51954300  0.64494600  0.51344800  1
  O  O38  1  0.19502200  0.24971700  0.59774400  1
  O  O39  1  0.80384800  0.78150900  0.60314200  1
  O  O40  1  0.80679000  0.49362100  0.61420700  1
  O  O41  1  0.20011600  0.54420700  0.61426600  1
  O  O42  1  0.46320700  0.39645000  0.71578700  1
  O  O43  1  0.54117000  0.64637800  0.72122100  1
  O  O44  1  0.54607100  0.90053000  0.74371500  1
  O  O45  1  0.45816400  0.13452500  0.74254500  1
  O  O46  1  0.95816400  0.63452500  0.75745500  1
  O  O47  1  0.04607100  0.40053000  0.75628500  1
  O  O48  1  0.04117000  0.14637800  0.77877900  1
  O  O49  1  0.96320700  0.89645000  0.78421300  1
  O  O50  1  0.70011600  0.04420700  0.88573400  1
  O  O51  1  0.30679000  0.99362100  0.88579300  1
  O  O52  1  0.30384800  0.28150900  0.89685800  1
  O  O53  1  0.69502200  0.74971700  0.90225600  1
  O  O54  1  0.01954300  0.14494600  0.98655200  1
  O  O55  1  0.97643500  0.88337500  0.99319400  1
