# generated using pymatgen
data_Ti3Nb2V3O16
_symmetry_space_group_name_H-M   'P 1'
_cell_length_a   5.99261100
_cell_length_b   6.00734828
_cell_length_c   9.41926136
_cell_angle_alpha   90.18301998
_cell_angle_beta   90.16698613
_cell_angle_gamma   119.32779594
_symmetry_Int_Tables_number   1
_chemical_formula_structural   Ti3Nb2V3O16
_chemical_formula_sum   'Ti3 Nb2 V3 O16'
_cell_volume   295.62454031
_cell_formula_units_Z   1
loop_
 _symmetry_equiv_pos_site_id
 _symmetry_equiv_pos_as_xyz
  1  'x, y, z'
loop_
 _atom_site_type_symbol
 _atom_site_label
 _atom_site_symmetry_multiplicity
 _atom_site_fract_x
 _atom_site_fract_y
 _atom_site_fract_z
 _atom_site_occupancy
  Ti  Ti0  1  0.17556000  0.34379900  0.78069200  1
  Ti  Ti1  1  0.17487300  0.83135100  0.78093900  1
  Ti  Ti2  1  0.34456100  0.17464600  0.27760400  1
  Nb  Nb3  1  0.34100400  0.66977300  0.50063700  1
  Nb  Nb4  1  0.67304900  0.34030000  0.00086700  1
  V  V5  1  0.66228100  0.83218300  0.79107200  1
  V  V6  1  0.83073000  0.17384500  0.28554300  1
  V  V7  1  0.83779200  0.66492700  0.29070000  1
  O  O8  1  0.17373200  0.34583900  0.40118500  1
  O  O9  1  0.04161800  0.52229900  0.66577500  1
  O  O10  1  0.31788100  0.65883000  0.89462400  1
  O  O11  1  0.00569500  0.00394700  0.69710300  1
  O  O12  1  0.00063400  0.01531200  0.19760400  1
  O  O13  1  0.17474300  0.83100100  0.39918000  1
  O  O14  1  0.46748500  0.51430700  0.66357000  1
  O  O15  1  0.46570300  0.95064700  0.66299200  1
  O  O16  1  0.34318000  0.17109500  0.90125800  1
  O  O17  1  0.66161700  0.82844700  0.40205600  1
  O  O18  1  0.52096900  0.04323100  0.16563900  1
  O  O19  1  0.51479600  0.46959600  0.16527400  1
  O  O20  1  0.66307200  0.31328500  0.39414700  1
  O  O21  1  0.82919200  0.17367800  0.90043300  1
  O  O22  1  0.94903700  0.46898900  0.16378100  1
  O  O23  1  0.83079400  0.65847000  0.90160700  1
