# generated using pymatgen
data_Sm3TaO7
_symmetry_space_group_name_H-M   'P 1'
_cell_length_a   7.59720800
_cell_length_b   7.67783800
_cell_length_c   10.83912200
_cell_angle_alpha   90.00000000
_cell_angle_beta   90.00000000
_cell_angle_gamma   90.00000000
_symmetry_Int_Tables_number   1
_chemical_formula_structural   Sm3TaO7
_chemical_formula_sum   'Sm12 Ta4 O28'
_cell_volume   632.24742002
_cell_formula_units_Z   4
loop_
 _symmetry_equiv_pos_site_id
 _symmetry_equiv_pos_as_xyz
  1  'x, y, z'
loop_
 _atom_site_type_symbol
 _atom_site_label
 _atom_site_symmetry_multiplicity
 _atom_site_fract_x
 _atom_site_fract_y
 _atom_site_fract_z
 _atom_site_occupancy
  Sm  Sm0  1  0.01214500  0.79420800  0.25000000  1
  Sm  Sm1  1  0.25164100  0.96240500  0.52193700  1
  Sm  Sm2  1  0.25164100  0.96240500  0.97806300  1
  Sm  Sm3  1  0.24835900  0.46240500  0.02193700  1
  Sm  Sm4  1  0.24835900  0.46240500  0.47806300  1
  Sm  Sm5  1  0.48785500  0.29420800  0.75000000  1
  Sm  Sm6  1  0.51214500  0.70579200  0.25000000  1
  Sm  Sm7  1  0.75164100  0.53759500  0.52193700  1
  Sm  Sm8  1  0.75164100  0.53759500  0.97806300  1
  Sm  Sm9  1  0.74835900  0.03759500  0.02193700  1
  Sm  Sm10  1  0.74835900  0.03759500  0.47806300  1
  Sm  Sm11  1  0.98785500  0.20579200  0.75000000  1
  Ta  Ta12  1  0.99898000  0.74879700  0.75000000  1
  Ta  Ta13  1  0.50102000  0.24879700  0.25000000  1
  Ta  Ta14  1  0.49898000  0.75120300  0.75000000  1
  Ta  Ta15  1  0.00102000  0.25120300  0.25000000  1
  O  O16  1  0.03412100  0.05045800  0.12605600  1
  O  O17  1  0.03412100  0.05045800  0.37394400  1
  O  O18  1  0.03942100  0.58657600  0.61415000  1
  O  O19  1  0.03942100  0.58657600  0.88585000  1
  O  O20  1  0.24753900  0.32535200  0.25000000  1
  O  O21  1  0.25528100  0.73101200  0.11682500  1
  O  O22  1  0.25528100  0.73101200  0.38317500  1
  O  O23  1  0.24471900  0.23101200  0.61682500  1
  O  O24  1  0.24471900  0.23101200  0.88317500  1
  O  O25  1  0.25246100  0.82535200  0.75000000  1
  O  O26  1  0.46057900  0.08657600  0.11415000  1
  O  O27  1  0.46057900  0.08657600  0.38585000  1
  O  O28  1  0.46587900  0.55045800  0.62605600  1
  O  O29  1  0.46587900  0.55045800  0.87394400  1
  O  O30  1  0.53412100  0.44954200  0.12605600  1
  O  O31  1  0.53412100  0.44954200  0.37394400  1
  O  O32  1  0.53942100  0.91342400  0.61415000  1
  O  O33  1  0.53942100  0.91342400  0.88585000  1
  O  O34  1  0.74753900  0.17464800  0.25000000  1
  O  O35  1  0.75528100  0.76898800  0.11682500  1
  O  O36  1  0.75528100  0.76898800  0.38317500  1
  O  O37  1  0.74471900  0.26898800  0.61682500  1
  O  O38  1  0.74471900  0.26898800  0.88317500  1
  O  O39  1  0.75246100  0.67464800  0.75000000  1
  O  O40  1  0.96057900  0.41342400  0.11415000  1
  O  O41  1  0.96057900  0.41342400  0.38585000  1
  O  O42  1  0.96587900  0.94954200  0.62605600  1
  O  O43  1  0.96587900  0.94954200  0.87394400  1
