# generated using pymatgen
data_Na2CoPCO7
_symmetry_space_group_name_H-M   'P 1'
_cell_length_a   6.44163700
_cell_length_b   5.26713800
_cell_length_c   8.96685538
_cell_angle_alpha   88.39170477
_cell_angle_beta   90.00000000
_cell_angle_gamma   90.00000000
_symmetry_Int_Tables_number   1
_chemical_formula_structural   Na2CoPCO7
_chemical_formula_sum   'Na4 Co2 P2 C2 O14'
_cell_volume   304.11650562
_cell_formula_units_Z   2
loop_
 _symmetry_equiv_pos_site_id
 _symmetry_equiv_pos_as_xyz
  1  'x, y, z'
loop_
 _atom_site_type_symbol
 _atom_site_label
 _atom_site_symmetry_multiplicity
 _atom_site_fract_x
 _atom_site_fract_y
 _atom_site_fract_z
 _atom_site_occupancy
  Na  Na0  1  0.49690200  0.23750900  0.23448500  1
  Na  Na1  1  0.00309800  0.23750900  0.23448500  1
  Na  Na2  1  0.50309800  0.76249100  0.76551500  1
  Na  Na3  1  0.99690200  0.76249100  0.76551500  1
  Co  Co4  1  0.75000000  0.78371600  0.34862700  1
  Co  Co5  1  0.25000000  0.21628400  0.65137300  1
  P  P6  1  0.25000000  0.71197900  0.42661400  1
  P  P7  1  0.75000000  0.28802100  0.57338600  1
  C  C8  1  0.75000000  0.72232700  0.07459600  1
  C  C9  1  0.25000000  0.27767300  0.92540400  1
  O  O10  1  0.25000000  0.31230100  0.06326600  1
  O  O11  1  0.75000000  0.94650700  0.13425900  1
  O  O12  1  0.75000000  0.53358400  0.17427700  1
  O  O13  1  0.05525900  0.79614800  0.33502800  1
  O  O14  1  0.44474100  0.79614800  0.33502800  1
  O  O15  1  0.75000000  0.15698900  0.42164100  1
  O  O16  1  0.25000000  0.41674000  0.44880800  1
  O  O17  1  0.75000000  0.58326000  0.55119200  1
  O  O18  1  0.25000000  0.84301100  0.57835900  1
  O  O19  1  0.55525900  0.20385200  0.66497200  1
  O  O20  1  0.94474100  0.20385200  0.66497200  1
  O  O21  1  0.25000000  0.46641600  0.82572300  1
  O  O22  1  0.25000000  0.05349300  0.86574100  1
  O  O23  1  0.75000000  0.68769900  0.93673400  1
