# generated using pymatgen
data_Ba3(BrO)2
_symmetry_space_group_name_H-M   'P 1'
_cell_length_a   10.69661400
_cell_length_b   12.77368100
_cell_length_c   14.42148675
_cell_angle_alpha   67.94663373
_cell_angle_beta   90.00000000
_cell_angle_gamma   90.00000000
_symmetry_Int_Tables_number   1
_chemical_formula_structural   Ba3(BrO)2
_chemical_formula_sum   'Ba24 Br16 O16'
_cell_volume   1826.31057749
_cell_formula_units_Z   8
loop_
 _symmetry_equiv_pos_site_id
 _symmetry_equiv_pos_as_xyz
  1  'x, y, z'
loop_
 _atom_site_type_symbol
 _atom_site_label
 _atom_site_symmetry_multiplicity
 _atom_site_fract_x
 _atom_site_fract_y
 _atom_site_fract_z
 _atom_site_occupancy
  Ba  Ba0  1  0.81895900  0.01025100  0.36861300  1
  Ba  Ba1  1  0.41606500  0.09241800  0.37647600  1
  Ba  Ba2  1  0.10899600  0.20841300  0.14013700  1
  Ba  Ba3  1  0.68104100  0.01025100  0.86861300  1
  Ba  Ba4  1  0.47478100  0.33923000  0.07907600  1
  Ba  Ba5  1  0.08393500  0.09241800  0.87647600  1
  Ba  Ba6  1  0.39100400  0.20841300  0.64013700  1
  Ba  Ba7  1  0.94391300  0.42347400  0.27593500  1
  Ba  Ba8  1  0.02521900  0.33923000  0.57907600  1
  Ba  Ba9  1  0.15819900  0.56470500  0.01621200  1
  Ba  Ba10  1  0.65819900  0.43529500  0.48378800  1
  Ba  Ba11  1  0.44391300  0.57652600  0.22406500  1
  Ba  Ba12  1  0.55608700  0.42347400  0.77593500  1
  Ba  Ba13  1  0.34180100  0.56470500  0.51621200  1
  Ba  Ba14  1  0.84180100  0.43529500  0.98378800  1
  Ba  Ba15  1  0.97478100  0.66077000  0.42092400  1
  Ba  Ba16  1  0.05608700  0.57652600  0.72406500  1
  Ba  Ba17  1  0.60899600  0.79158700  0.35986300  1
  Ba  Ba18  1  0.91606500  0.90758200  0.12352400  1
  Ba  Ba19  1  0.52521900  0.66077000  0.92092400  1
  Ba  Ba20  1  0.31895900  0.98974900  0.13138700  1
  Ba  Ba21  1  0.89100400  0.79158700  0.85986300  1
  Ba  Ba22  1  0.58393500  0.90758200  0.62352400  1
  Ba  Ba23  1  0.18104100  0.98974900  0.63138700  1
  Br  Br24  1  0.77244200  0.15145000  0.12107300  1
  Br  Br25  1  0.06766700  0.15236300  0.38980600  1
  Br  Br26  1  0.72755800  0.15145000  0.62107300  1
  Br  Br27  1  0.62717700  0.32047300  0.29931700  1
  Br  Br28  1  0.43233300  0.15236300  0.88980600  1
  Br  Br29  1  0.26607600  0.38239200  0.40279800  1
  Br  Br30  1  0.87282300  0.32047300  0.79931700  1
  Br  Br31  1  0.76607600  0.61760800  0.09720200  1
  Br  Br32  1  0.23392400  0.38239200  0.90279800  1
  Br  Br33  1  0.12717700  0.67952700  0.20068300  1
  Br  Br34  1  0.73392400  0.61760800  0.59720200  1
  Br  Br35  1  0.56766700  0.84763700  0.11019400  1
  Br  Br36  1  0.37282300  0.67952700  0.70068300  1
  Br  Br37  1  0.27244200  0.84855000  0.37892700  1
  Br  Br38  1  0.93233300  0.84763700  0.61019400  1
  Br  Br39  1  0.22755800  0.84855000  0.87892700  1
  O  O40  1  0.10291300  0.04224400  0.07119200  1
  O  O41  1  0.33861500  0.15542900  0.18187000  1
  O  O42  1  0.39708700  0.04224400  0.57119200  1
  O  O43  1  0.16138500  0.15542900  0.68187000  1
  O  O44  1  0.02241100  0.40238800  0.11810200  1
  O  O45  1  0.39238400  0.52759400  0.07212300  1
  O  O46  1  0.89238400  0.47240600  0.42787700  1
  O  O47  1  0.47758900  0.40238800  0.61810200  1
  O  O48  1  0.52241100  0.59761200  0.38189800  1
  O  O49  1  0.10761600  0.52759400  0.57212300  1
  O  O50  1  0.60761600  0.47240600  0.92787700  1
  O  O51  1  0.97758900  0.59761200  0.88189800  1
  O  O52  1  0.83861500  0.84457100  0.31813000  1
  O  O53  1  0.60291300  0.95775600  0.42880800  1
  O  O54  1  0.66138500  0.84457100  0.81813000  1
  O  O55  1  0.89708700  0.95775600  0.92880800  1
