# generated using pymatgen
data_Ba2B2O5
_symmetry_space_group_name_H-M   'P 1'
_cell_length_a   4.24201300
_cell_length_b   11.05834600
_cell_length_c   13.46993417
_cell_angle_alpha   73.97198780
_cell_angle_beta   90.00000000
_cell_angle_gamma   90.00000000
_symmetry_Int_Tables_number   1
_chemical_formula_structural   Ba2B2O5
_chemical_formula_sum   'Ba8 B8 O20'
_cell_volume   607.30707295
_cell_formula_units_Z   4
loop_
 _symmetry_equiv_pos_site_id
 _symmetry_equiv_pos_as_xyz
  1  'x, y, z'
loop_
 _atom_site_type_symbol
 _atom_site_label
 _atom_site_symmetry_multiplicity
 _atom_site_fract_x
 _atom_site_fract_y
 _atom_site_fract_z
 _atom_site_occupancy
  Ba  Ba0  1  0.72663100  0.91428200  0.66211700  1
  Ba  Ba1  1  0.77336900  0.91428200  0.16211700  1
  Ba  Ba2  1  0.24461400  0.60524500  0.60734600  1
  Ba  Ba3  1  0.25538600  0.60524500  0.10734600  1
  Ba  Ba4  1  0.74461400  0.39475500  0.89265400  1
  Ba  Ba5  1  0.75538600  0.39475500  0.39265400  1
  Ba  Ba6  1  0.22663100  0.08571800  0.83788300  1
  Ba  Ba7  1  0.27336900  0.08571800  0.33788300  1
  B  B8  1  0.66044400  0.80671800  0.93078600  1
  B  B9  1  0.83955600  0.80671800  0.43078600  1
  B  B10  1  0.31131400  0.67475900  0.82594200  1
  B  B11  1  0.18868600  0.67475900  0.32594200  1
  B  B12  1  0.81131400  0.32524100  0.67405800  1
  B  B13  1  0.68868600  0.32524100  0.17405800  1
  B  B14  1  0.16044400  0.19328200  0.56921400  1
  B  B15  1  0.33955600  0.19328200  0.06921400  1
  O  O16  1  0.70477600  0.92081200  0.85931700  1
  O  O17  1  0.79522400  0.92081200  0.35931700  1
  O  O18  1  0.48018800  0.70738000  0.90749900  1
  O  O19  1  0.73176500  0.77668600  0.53050800  1
  O  O20  1  0.24107300  0.76228000  0.73446700  1
  O  O21  1  0.01981200  0.70738000  0.40749900  1
  O  O22  1  0.76823500  0.77668600  0.03050800  1
  O  O23  1  0.25892700  0.76228000  0.23446700  1
  O  O24  1  0.24107700  0.54949500  0.84490800  1
  O  O25  1  0.74107700  0.45050500  0.65509200  1
  O  O26  1  0.25892300  0.54949500  0.34490800  1
  O  O27  1  0.75892300  0.45050500  0.15509200  1
  O  O28  1  0.74107300  0.23772000  0.76553300  1
  O  O29  1  0.23176500  0.22331400  0.96949200  1
  O  O30  1  0.98018800  0.29262000  0.59250100  1
  O  O31  1  0.75892700  0.23772000  0.26553300  1
  O  O32  1  0.26823500  0.22331400  0.46949200  1
  O  O33  1  0.51981200  0.29262000  0.09250100  1
  O  O34  1  0.20477600  0.07918800  0.64068300  1
  O  O35  1  0.29522400  0.07918800  0.14068300  1
