# generated using pymatgen
data_Sr3(AsO4)2
_symmetry_space_group_name_H-M   'P 1'
_cell_length_a   10.29619600
_cell_length_b   7.35720000
_cell_length_c   12.67591964
_cell_angle_alpha   89.40842806
_cell_angle_beta   90.00000000
_cell_angle_gamma   90.00000000
_symmetry_Int_Tables_number   1
_chemical_formula_structural   Sr3(AsO4)2
_chemical_formula_sum   'Sr12 As8 O32'
_cell_volume   960.16460374
_cell_formula_units_Z   4
loop_
 _symmetry_equiv_pos_site_id
 _symmetry_equiv_pos_as_xyz
  1  'x, y, z'
loop_
 _atom_site_type_symbol
 _atom_site_label
 _atom_site_symmetry_multiplicity
 _atom_site_fract_x
 _atom_site_fract_y
 _atom_site_fract_z
 _atom_site_occupancy
  Sr  Sr0  1  0.79692900  0.09255300  0.57393400  1
  Sr  Sr1  1  0.70307100  0.09255300  0.07393400  1
  Sr  Sr2  1  0.15526700  0.24218700  0.64470900  1
  Sr  Sr3  1  0.34473300  0.24218700  0.14470900  1
  Sr  Sr4  1  0.53823100  0.39382900  0.63788500  1
  Sr  Sr5  1  0.96176900  0.39382900  0.13788500  1
  Sr  Sr6  1  0.03823100  0.60617100  0.86211500  1
  Sr  Sr7  1  0.46176900  0.60617100  0.36211500  1
  Sr  Sr8  1  0.65526700  0.75781300  0.85529100  1
  Sr  Sr9  1  0.84473300  0.75781300  0.35529100  1
  Sr  Sr10  1  0.29692900  0.90744700  0.92606600  1
  Sr  Sr11  1  0.20307100  0.90744700  0.42606600  1
  As  As12  1  0.94848600  0.10466000  0.85877700  1
  As  As13  1  0.55151400  0.10466000  0.35877700  1
  As  As14  1  0.38562300  0.40257100  0.86831300  1
  As  As15  1  0.11437700  0.40257100  0.36831300  1
  As  As16  1  0.88562300  0.59742900  0.63168700  1
  As  As17  1  0.61437700  0.59742900  0.13168700  1
  As  As18  1  0.44848600  0.89534000  0.64122300  1
  As  As19  1  0.05151400  0.89534000  0.14122300  1
  O  O20  1  0.79758700  0.02680200  0.89533100  1
  O  O21  1  0.70241300  0.02680200  0.39533100  1
  O  O22  1  0.57040400  0.05562700  0.62444200  1
  O  O23  1  0.92959600  0.05562700  0.12444200  1
  O  O24  1  0.94888400  0.14565200  0.72424100  1
  O  O25  1  0.55111600  0.14565200  0.22424100  1
  O  O26  1  0.38310300  0.21886500  0.95482100  1
  O  O27  1  0.11689700  0.21886500  0.45482100  1
  O  O28  1  0.98549300  0.30025200  0.92684400  1
  O  O29  1  0.33538100  0.33397100  0.74533900  1
  O  O30  1  0.51450700  0.30025200  0.42684400  1
  O  O31  1  0.16461900  0.33397100  0.24533900  1
  O  O32  1  0.77955900  0.43311000  0.58775000  1
  O  O33  1  0.72044100  0.43311000  0.08775000  1
  O  O34  1  0.54337600  0.46608300  0.84622500  1
  O  O35  1  0.95662400  0.46608300  0.34622500  1
  O  O36  1  0.04337600  0.53391700  0.65377500  1
  O  O37  1  0.45662400  0.53391700  0.15377500  1
  O  O38  1  0.27955900  0.56689000  0.91225000  1
  O  O39  1  0.22044100  0.56689000  0.41225000  1
  O  O40  1  0.83538100  0.66602900  0.75466100  1
  O  O41  1  0.48549300  0.69974800  0.57315600  1
  O  O42  1  0.66461900  0.66602900  0.25466100  1
  O  O43  1  0.01450700  0.69974800  0.07315600  1
  O  O44  1  0.88310300  0.78113500  0.54517900  1
  O  O45  1  0.61689700  0.78113500  0.04517900  1
  O  O46  1  0.44888400  0.85434800  0.77575900  1
  O  O47  1  0.05111600  0.85434800  0.27575900  1
  O  O48  1  0.07040400  0.94437300  0.87555800  1
  O  O49  1  0.42959600  0.94437300  0.37555800  1
  O  O50  1  0.29758700  0.97319800  0.60466900  1
  O  O51  1  0.20241300  0.97319800  0.10466900  1
