# generated using pymatgen
data_CsLa3O5
_symmetry_space_group_name_H-M   'P 1'
_cell_length_a   3.80008000
_cell_length_b   10.95194600
_cell_length_c   18.68272900
_cell_angle_alpha   90.00000000
_cell_angle_beta   90.00000000
_cell_angle_gamma   90.00000000
_symmetry_Int_Tables_number   1
_chemical_formula_structural   CsLa3O5
_chemical_formula_sum   'Cs4 La12 O20'
_cell_volume   777.54287771
_cell_formula_units_Z   4
loop_
 _symmetry_equiv_pos_site_id
 _symmetry_equiv_pos_as_xyz
  1  'x, y, z'
loop_
 _atom_site_type_symbol
 _atom_site_label
 _atom_site_symmetry_multiplicity
 _atom_site_fract_x
 _atom_site_fract_y
 _atom_site_fract_z
 _atom_site_occupancy
  Cs  Cs0  1  0.75000000  0.03116000  0.62583500  1
  Cs  Cs1  1  0.25000000  0.46884000  0.12583500  1
  Cs  Cs2  1  0.75000000  0.53116000  0.87416500  1
  Cs  Cs3  1  0.25000000  0.96884000  0.37416500  1
  La  La4  1  0.75000000  0.11140900  0.16412800  1
  La  La5  1  0.25000000  0.15415000  0.98914100  1
  La  La6  1  0.75000000  0.18465100  0.81679000  1
  La  La7  1  0.25000000  0.31534900  0.31679000  1
  La  La8  1  0.75000000  0.34585000  0.48914100  1
  La  La9  1  0.25000000  0.38859100  0.66412800  1
  La  La10  1  0.75000000  0.61140900  0.33587200  1
  La  La11  1  0.25000000  0.65415000  0.51085900  1
  La  La12  1  0.75000000  0.68465100  0.68321000  1
  La  La13  1  0.25000000  0.81534900  0.18321000  1
  La  La14  1  0.75000000  0.84585000  0.01085900  1
  La  La15  1  0.25000000  0.88859100  0.83587200  1
  O  O16  1  0.75000000  0.02324800  0.92043900  1
  O  O17  1  0.25000000  0.06981700  0.77128300  1
  O  O18  1  0.25000000  0.19278700  0.21426300  1
  O  O19  1  0.75000000  0.22518900  0.05223300  1
  O  O20  1  0.75000000  0.22980200  0.38476700  1
  O  O21  1  0.25000000  0.27019800  0.88476700  1
  O  O22  1  0.25000000  0.27481100  0.55223300  1
  O  O23  1  0.75000000  0.30721300  0.71426300  1
  O  O24  1  0.75000000  0.43018300  0.27128300  1
  O  O25  1  0.25000000  0.47675200  0.42043900  1
  O  O26  1  0.75000000  0.52324800  0.57956100  1
  O  O27  1  0.25000000  0.56981700  0.72871700  1
  O  O28  1  0.25000000  0.69278700  0.28573700  1
  O  O29  1  0.75000000  0.72518900  0.44776700  1
  O  O30  1  0.75000000  0.72980200  0.11523300  1
  O  O31  1  0.25000000  0.77019800  0.61523300  1
  O  O32  1  0.25000000  0.77481100  0.94776700  1
  O  O33  1  0.75000000  0.80721300  0.78573700  1
  O  O34  1  0.75000000  0.93018300  0.22871700  1
  O  O35  1  0.25000000  0.97675200  0.07956100  1
