# generated using pymatgen
data_Na2Ge2O5
_symmetry_space_group_name_H-M   'P 1'
_cell_length_a   5.00855700
_cell_length_b   8.53849600
_cell_length_c   12.32296000
_cell_angle_alpha   90.00000000
_cell_angle_beta   90.00000000
_cell_angle_gamma   90.00000000
_symmetry_Int_Tables_number   1
_chemical_formula_structural   Na2Ge2O5
_chemical_formula_sum   'Na8 Ge8 O20'
_cell_volume   526.99808698
_cell_formula_units_Z   4
loop_
 _symmetry_equiv_pos_site_id
 _symmetry_equiv_pos_as_xyz
  1  'x, y, z'
loop_
 _atom_site_type_symbol
 _atom_site_label
 _atom_site_symmetry_multiplicity
 _atom_site_fract_x
 _atom_site_fract_y
 _atom_site_fract_z
 _atom_site_occupancy
  Na  Na0  1  0.43267500  0.93372900  0.77174200  1
  Na  Na1  1  0.39812600  0.81312800  0.30564300  1
  Na  Na2  1  0.89812600  0.68687200  0.80564300  1
  Na  Na3  1  0.93267500  0.56627100  0.27174200  1
  Na  Na4  1  0.43267500  0.43372900  0.72825800  1
  Na  Na5  1  0.39812600  0.31312800  0.19435700  1
  Na  Na6  1  0.89812600  0.18687200  0.69435700  1
  Na  Na7  1  0.93267500  0.06627100  0.22825800  1
  Ge  Ge8  1  0.47635200  0.95057100  0.07191800  1
  Ge  Ge9  1  0.85831300  0.88980900  0.47425800  1
  Ge  Ge10  1  0.35831300  0.61019100  0.97425800  1
  Ge  Ge11  1  0.97635200  0.54942900  0.57191800  1
  Ge  Ge12  1  0.47635200  0.45057100  0.42808200  1
  Ge  Ge13  1  0.85831300  0.38980900  0.02574200  1
  Ge  Ge14  1  0.35831300  0.11019100  0.52574200  1
  Ge  Ge15  1  0.97635200  0.04942900  0.92808200  1
  O  O16  1  0.90458500  0.96160600  0.80643800  1
  O  O17  1  0.83121900  0.97274800  0.04949400  1
  O  O18  1  0.50320500  0.92885300  0.48104100  1
  O  O19  1  0.92886200  0.83350400  0.34317000  1
  O  O20  1  0.91749100  0.75561800  0.58398900  1
  O  O21  1  0.41749100  0.74438200  0.08398900  1
  O  O22  1  0.42886200  0.66649600  0.84317000  1
  O  O23  1  0.00320500  0.57114700  0.98104100  1
  O  O24  1  0.33121900  0.52725200  0.54949400  1
  O  O25  1  0.40458500  0.53839400  0.30643800  1
  O  O26  1  0.90458500  0.46160600  0.69356200  1
  O  O27  1  0.83121900  0.47274800  0.45050600  1
  O  O28  1  0.50320500  0.42885300  0.01895900  1
  O  O29  1  0.92886200  0.33350400  0.15683000  1
  O  O30  1  0.91749100  0.25561800  0.91601100  1
  O  O31  1  0.41749100  0.24438200  0.41601100  1
  O  O32  1  0.42886200  0.16649600  0.65683000  1
  O  O33  1  0.00320500  0.07114700  0.51895900  1
  O  O34  1  0.33121900  0.02725200  0.95050600  1
  O  O35  1  0.40458500  0.03839400  0.19356200  1
