# generated using pymatgen
data_Sr3(AsO4)2
_symmetry_space_group_name_H-M   'P 1'
_cell_length_a   12.35355400
_cell_length_b   7.15942400
_cell_length_c   9.96206500
_cell_angle_alpha   82.90599254
_cell_angle_beta   90.00000000
_cell_angle_gamma   90.00000000
_symmetry_Int_Tables_number   1
_chemical_formula_structural   Sr3(AsO4)2
_chemical_formula_sum   'Sr12 As8 O32'
_cell_volume   874.34332111
_cell_formula_units_Z   4
loop_
 _symmetry_equiv_pos_site_id
 _symmetry_equiv_pos_as_xyz
  1  'x, y, z'
loop_
 _atom_site_type_symbol
 _atom_site_label
 _atom_site_symmetry_multiplicity
 _atom_site_fract_x
 _atom_site_fract_y
 _atom_site_fract_z
 _atom_site_occupancy
  Sr  Sr0  1  0.37850700  0.32041400  0.05286000  1
  Sr  Sr1  1  0.12149300  0.82041400  0.05286000  1
  Sr  Sr2  1  0.10089800  0.33470100  0.29739400  1
  Sr  Sr3  1  0.67155000  0.37189700  0.33140300  1
  Sr  Sr4  1  0.39910200  0.83470100  0.29739400  1
  Sr  Sr5  1  0.82845000  0.87189700  0.33140300  1
  Sr  Sr6  1  0.17155000  0.12810300  0.66859700  1
  Sr  Sr7  1  0.60089800  0.16529900  0.70260600  1
  Sr  Sr8  1  0.32845000  0.62810300  0.66859700  1
  Sr  Sr9  1  0.89910200  0.66529900  0.70260600  1
  Sr  Sr10  1  0.87850700  0.17958600  0.94714000  1
  Sr  Sr11  1  0.62149300  0.67958600  0.94714000  1
  As  As12  1  0.63703100  0.10572100  0.07876200  1
  As  As13  1  0.86296900  0.60572100  0.07876200  1
  As  As14  1  0.39715700  0.31399000  0.39924300  1
  As  As15  1  0.10284300  0.81399000  0.39924300  1
  As  As16  1  0.89715700  0.18601000  0.60075700  1
  As  As17  1  0.60284300  0.68601000  0.60075700  1
  As  As18  1  0.13703100  0.39427900  0.92123800  1
  As  As19  1  0.36296900  0.89427900  0.92123800  1
  O  O20  1  0.18902300  0.44883900  0.07240300  1
  O  O21  1  0.57779900  0.32562800  0.06880700  1
  O  O22  1  0.31097700  0.94883900  0.07240300  1
  O  O23  1  0.94503200  0.42482700  0.14271100  1
  O  O24  1  0.92220100  0.82562800  0.06880700  1
  O  O25  1  0.74866800  0.13157900  0.17998800  1
  O  O26  1  0.55496800  0.92482700  0.14271100  1
  O  O27  1  0.06213500  0.00043700  0.28338800  1
  O  O28  1  0.75133200  0.63157900  0.17998800  1
  O  O29  1  0.33369200  0.16548900  0.30012800  1
  O  O30  1  0.43786500  0.50043700  0.28338800  1
  O  O31  1  0.16630800  0.66548900  0.30012800  1
  O  O32  1  0.51584900  0.22304200  0.47132800  1
  O  O33  1  0.80373100  0.13569800  0.48080800  1
  O  O34  1  0.98415100  0.72304200  0.47132800  1
  O  O35  1  0.69626900  0.63569800  0.48080800  1
  O  O36  1  0.30373100  0.36430200  0.51919200  1
  O  O37  1  0.01584900  0.27695800  0.52867200  1
  O  O38  1  0.19626900  0.86430200  0.51919200  1
  O  O39  1  0.48415100  0.77695800  0.52867200  1
  O  O40  1  0.83369200  0.33451100  0.69987200  1
  O  O41  1  0.56213500  0.49956300  0.71661200  1
  O  O42  1  0.66630800  0.83451100  0.69987200  1
  O  O43  1  0.24866800  0.36842100  0.82001200  1
  O  O44  1  0.93786500  0.99956300  0.71661200  1
  O  O45  1  0.44503200  0.07517300  0.85728900  1
  O  O46  1  0.25133200  0.86842100  0.82001200  1
  O  O47  1  0.07779900  0.17437200  0.93119300  1
  O  O48  1  0.05496800  0.57517300  0.85728900  1
  O  O49  1  0.68902300  0.05116100  0.92759700  1
  O  O50  1  0.42220100  0.67437200  0.93119300  1
  O  O51  1  0.81097700  0.55116100  0.92759700  1
