# generated using pymatgen
data_Cs4GeO4
_symmetry_space_group_name_H-M   'P 1'
_cell_length_a   19.72817500
_cell_length_b   7.09125500
_cell_length_c   7.11213551
_cell_angle_alpha   66.87216974
_cell_angle_beta   90.00000000
_cell_angle_gamma   90.00000000
_symmetry_Int_Tables_number   1
_chemical_formula_structural   Cs4GeO4
_chemical_formula_sum   'Cs16 Ge4 O16'
_cell_volume   915.00518301
_cell_formula_units_Z   4
loop_
 _symmetry_equiv_pos_site_id
 _symmetry_equiv_pos_as_xyz
  1  'x, y, z'
loop_
 _atom_site_type_symbol
 _atom_site_label
 _atom_site_symmetry_multiplicity
 _atom_site_fract_x
 _atom_site_fract_y
 _atom_site_fract_z
 _atom_site_occupancy
  Cs  Cs0  1  0.81001500  0.81955900  0.67806500  1
  Cs  Cs1  1  0.01456400  0.78467400  0.75422200  1
  Cs  Cs2  1  0.21505600  0.69074300  0.82828500  1
  Cs  Cs3  1  0.42016300  0.66097300  0.78245800  1
  Cs  Cs4  1  0.68998500  0.81955900  0.17806500  1
  Cs  Cs5  1  0.48543600  0.78467400  0.25422200  1
  Cs  Cs6  1  0.28494400  0.69074300  0.32828500  1
  Cs  Cs7  1  0.07983700  0.66097300  0.28245800  1
  Cs  Cs8  1  0.92016300  0.33902700  0.71754200  1
  Cs  Cs9  1  0.71505600  0.30925700  0.67171500  1
  Cs  Cs10  1  0.51456400  0.21532600  0.74577800  1
  Cs  Cs11  1  0.31001500  0.18044100  0.82193500  1
  Cs  Cs12  1  0.57983700  0.33902700  0.21754200  1
  Cs  Cs13  1  0.78494400  0.30925700  0.17171500  1
  Cs  Cs14  1  0.98543600  0.21532600  0.24577800  1
  Cs  Cs15  1  0.18998500  0.18044100  0.32193500  1
  Ge  Ge16  1  0.62349400  0.74140900  0.70442600  1
  Ge  Ge17  1  0.87650600  0.74140900  0.20442600  1
  Ge  Ge18  1  0.12349400  0.25859100  0.79557400  1
  Ge  Ge19  1  0.37650600  0.25859100  0.29557400  1
  O  O20  1  0.66234900  0.98014300  0.53974600  1
  O  O21  1  0.55577200  0.78346500  0.85372300  1
  O  O22  1  0.83765100  0.98014300  0.03974600  1
  O  O23  1  0.94422800  0.78346500  0.35372300  1
  O  O24  1  0.68562100  0.57785000  0.88579900  1
  O  O25  1  0.59502200  0.60243600  0.55188700  1
  O  O26  1  0.09502200  0.39756400  0.94811300  1
  O  O27  1  0.81437900  0.57785000  0.38579900  1
  O  O28  1  0.18562100  0.42215000  0.61420100  1
  O  O29  1  0.90497800  0.60243600  0.05188700  1
  O  O30  1  0.40497800  0.39756400  0.44811300  1
  O  O31  1  0.31437900  0.42215000  0.11420100  1
  O  O32  1  0.05577200  0.21653500  0.64627700  1
  O  O33  1  0.16234900  0.01985700  0.96025400  1
  O  O34  1  0.44422800  0.21653500  0.14627700  1
  O  O35  1  0.33765100  0.01985700  0.46025400  1
