# generated using pymatgen
data_Rb4PbO4
_symmetry_space_group_name_H-M   'P 1'
_cell_length_a   7.21497400
_cell_length_b   11.51072100
_cell_length_c   11.52555626
_cell_angle_alpha   68.98343322
_cell_angle_beta   90.00000000
_cell_angle_gamma   90.00000000
_symmetry_Int_Tables_number   1
_chemical_formula_structural   Rb4PbO4
_chemical_formula_sum   'Rb16 Pb4 O16'
_cell_volume   893.51676691
_cell_formula_units_Z   4
loop_
 _symmetry_equiv_pos_site_id
 _symmetry_equiv_pos_as_xyz
  1  'x, y, z'
loop_
 _atom_site_type_symbol
 _atom_site_label
 _atom_site_symmetry_multiplicity
 _atom_site_fract_x
 _atom_site_fract_y
 _atom_site_fract_z
 _atom_site_occupancy
  Rb  Rb0  1  0.58333900  0.92943200  0.70011800  1
  Rb  Rb1  1  0.10976500  0.84199500  0.58216400  1
  Rb  Rb2  1  0.91666100  0.92943200  0.20011800  1
  Rb  Rb3  1  0.33339000  0.62781300  0.89380100  1
  Rb  Rb4  1  0.39023500  0.84199500  0.08216400  1
  Rb  Rb5  1  0.81726200  0.57657700  0.78959200  1
  Rb  Rb6  1  0.16661000  0.62781300  0.39380100  1
  Rb  Rb7  1  0.68273800  0.57657700  0.28959200  1
  Rb  Rb8  1  0.31726200  0.42342300  0.71040800  1
  Rb  Rb9  1  0.83339000  0.37218700  0.60619900  1
  Rb  Rb10  1  0.18273800  0.42342300  0.21040800  1
  Rb  Rb11  1  0.60976500  0.15800500  0.91783600  1
  Rb  Rb12  1  0.66661000  0.37218700  0.10619900  1
  Rb  Rb13  1  0.08333900  0.07056800  0.79988200  1
  Rb  Rb14  1  0.89023500  0.15800500  0.41783600  1
  Rb  Rb15  1  0.41666100  0.07056800  0.29988200  1
  Pb  Pb16  1  0.87747100  0.75822300  0.99024100  1
  Pb  Pb17  1  0.62252900  0.75822300  0.49024100  1
  Pb  Pb18  1  0.37747100  0.24177700  0.50975900  1
  Pb  Pb19  1  0.12252900  0.24177700  0.00975900  1
  O  O20  1  0.75969600  0.92937000  0.97337600  1
  O  O21  1  0.74030400  0.92937000  0.47337600  1
  O  O22  1  0.02192900  0.78494100  0.82579400  1
  O  O23  1  0.45736400  0.68488100  0.65249600  1
  O  O24  1  0.47807100  0.78494100  0.32579400  1
  O  O25  1  0.83909300  0.63076800  0.51262300  1
  O  O26  1  0.04263600  0.68488100  0.15249600  1
  O  O27  1  0.33909300  0.36923200  0.98737700  1
  O  O28  1  0.66090700  0.63076800  0.01262300  1
  O  O29  1  0.95736400  0.31511900  0.84750400  1
  O  O30  1  0.16090700  0.36923200  0.48737700  1
  O  O31  1  0.52192900  0.21505900  0.67420600  1
  O  O32  1  0.54263600  0.31511900  0.34750400  1
  O  O33  1  0.97807100  0.21505900  0.17420600  1
  O  O34  1  0.25969600  0.07063000  0.52662400  1
  O  O35  1  0.24030400  0.07063000  0.02662400  1
