# generated using pymatgen
data_MnP2O7
_symmetry_space_group_name_H-M   'P 1'
_cell_length_a   6.55284500
_cell_length_b   4.94368500
_cell_length_c   15.32018879
_cell_angle_alpha   89.79845332
_cell_angle_beta   90.00000000
_cell_angle_gamma   90.00000000
_symmetry_Int_Tables_number   1
_chemical_formula_structural   MnP2O7
_chemical_formula_sum   'Mn4 P8 O28'
_cell_volume   496.29753265
_cell_formula_units_Z   4
loop_
 _symmetry_equiv_pos_site_id
 _symmetry_equiv_pos_as_xyz
  1  'x, y, z'
loop_
 _atom_site_type_symbol
 _atom_site_label
 _atom_site_symmetry_multiplicity
 _atom_site_fract_x
 _atom_site_fract_y
 _atom_site_fract_z
 _atom_site_occupancy
  Mn  Mn0  1  0.58191100  0.74942400  0.63460600  1
  Mn  Mn1  1  0.91808900  0.74942400  0.13460600  1
  Mn  Mn2  1  0.08191100  0.25057600  0.86539400  1
  Mn  Mn3  1  0.41808900  0.25057600  0.36539400  1
  P  P4  1  0.80326600  0.74594100  0.92662200  1
  P  P5  1  0.69673400  0.74594100  0.42662200  1
  P  P6  1  0.39770000  0.73832700  0.83331200  1
  P  P7  1  0.10230000  0.73832700  0.33331200  1
  P  P8  1  0.89770000  0.26167300  0.66668800  1
  P  P9  1  0.60230000  0.26167300  0.16668800  1
  P  P10  1  0.30326600  0.25405900  0.57337800  1
  P  P11  1  0.19673400  0.25405900  0.07337800  1
  O  O12  1  0.24538600  0.93590400  0.87183900  1
  O  O13  1  0.35174200  0.95483300  0.58944400  1
  O  O14  1  0.25461400  0.93590400  0.37183900  1
  O  O15  1  0.14825800  0.95483300  0.08944400  1
  O  O16  1  0.50650100  0.84513500  0.75218400  1
  O  O17  1  0.99349900  0.84513500  0.25218400  1
  O  O18  1  0.56342500  0.71022200  0.91059500  1
  O  O19  1  0.93657500  0.71022200  0.41059500  1
  O  O20  1  0.67146100  0.65086400  0.52071600  1
  O  O21  1  0.82853900  0.65086400  0.02071600  1
  O  O22  1  0.80686500  0.54312200  0.68152500  1
  O  O23  1  0.69313500  0.54312200  0.18152500  1
  O  O24  1  0.90993800  0.55893100  0.86128100  1
  O  O25  1  0.59006200  0.55893100  0.36128100  1
  O  O26  1  0.40993800  0.44106900  0.63871900  1
  O  O27  1  0.09006200  0.44106900  0.13871900  1
  O  O28  1  0.30686500  0.45687800  0.81847500  1
  O  O29  1  0.19313500  0.45687800  0.31847500  1
  O  O30  1  0.17146100  0.34913600  0.97928400  1
  O  O31  1  0.32853900  0.34913600  0.47928400  1
  O  O32  1  0.06342500  0.28977800  0.58940500  1
  O  O33  1  0.43657500  0.28977800  0.08940500  1
  O  O34  1  0.00650100  0.15486500  0.74781600  1
  O  O35  1  0.49349900  0.15486500  0.24781600  1
  O  O36  1  0.85174200  0.04516700  0.91055600  1
  O  O37  1  0.74538600  0.06409600  0.62816100  1
  O  O38  1  0.64825800  0.04516700  0.41055600  1
  O  O39  1  0.75461400  0.06409600  0.12816100  1
