# generated using pymatgen
data_VBO4
_symmetry_space_group_name_H-M   'P 1'
_cell_length_a   7.60245200
_cell_length_b   7.83329510
_cell_length_c   8.66625227
_cell_angle_alpha   107.52126440
_cell_angle_beta   96.18452731
_cell_angle_gamma   112.86450617
_symmetry_Int_Tables_number   1
_chemical_formula_structural   VBO4
_chemical_formula_sum   'V6 B6 O24'
_cell_volume   438.40098706
_cell_formula_units_Z   6
loop_
 _symmetry_equiv_pos_site_id
 _symmetry_equiv_pos_as_xyz
  1  'x, y, z'
loop_
 _atom_site_type_symbol
 _atom_site_label
 _atom_site_symmetry_multiplicity
 _atom_site_fract_x
 _atom_site_fract_y
 _atom_site_fract_z
 _atom_site_occupancy
  V  V0  1  0.95145500  0.00849200  0.25570800  1
  V  V1  1  0.18156200  0.63690500  0.33507200  1
  V  V2  1  0.49497500  0.71788900  0.84775100  1
  V  V3  1  0.50502500  0.28211100  0.15224900  1
  V  V4  1  0.81843800  0.36309500  0.66492800  1
  V  V5  1  0.04854500  0.99150800  0.74429200  1
  B  B6  1  0.92235200  0.73471000  0.93688300  1
  B  B7  1  0.18364000  0.36541700  0.54722100  1
  B  B8  1  0.51313200  0.90509200  0.21921100  1
  B  B9  1  0.48686800  0.09490800  0.78078900  1
  B  B10  1  0.81636000  0.63458300  0.45277900  1
  B  B11  1  0.07764800  0.26529000  0.06311700  1
  O  O12  1  0.06605400  0.86036100  0.86748000  1
  O  O13  1  0.99961800  0.70481600  0.39600500  1
  O  O14  1  0.08817300  0.46381000  0.13169500  1
  O  O15  1  0.99026000  0.81585100  0.11892800  1
  O  O16  1  0.28327400  0.06133400  0.70929000  1
  O  O17  1  0.34818800  0.47321800  0.69812100  1
  O  O18  1  0.48236900  0.90045000  0.77830800  1
  O  O19  1  0.16662100  0.17740500  0.42334100  1
  O  O20  1  0.20367600  0.50676100  0.46047900  1
  O  O21  1  0.38875600  0.83272800  0.32492400  1
  O  O22  1  0.27135000  0.26803200  0.11581200  1
  O  O23  1  0.43837700  0.76004800  0.04217200  1
  O  O24  1  0.56162300  0.23995200  0.95782800  1
  O  O25  1  0.72865000  0.73196800  0.88418800  1
  O  O26  1  0.61124400  0.16727200  0.67507600  1
  O  O27  1  0.79632400  0.49323900  0.53952100  1
  O  O28  1  0.83337900  0.82259500  0.57665900  1
  O  O29  1  0.51763100  0.09955000  0.22169200  1
  O  O30  1  0.65181200  0.52678200  0.30187900  1
  O  O31  1  0.71672600  0.93866600  0.29071000  1
  O  O32  1  0.00974000  0.18414900  0.88107200  1
  O  O33  1  0.91182700  0.53619000  0.86830500  1
  O  O34  1  0.00038200  0.29518400  0.60399500  1
  O  O35  1  0.93394600  0.13963900  0.13252000  1
