# generated using pymatgen
data_NaCd4(PO4)3
_symmetry_space_group_name_H-M   'P 1'
_cell_length_a   6.78568400
_cell_length_b   10.30602900
_cell_length_c   15.29403700
_cell_angle_alpha   90.00000000
_cell_angle_beta   90.00000000
_cell_angle_gamma   90.00000000
_symmetry_Int_Tables_number   1
_chemical_formula_structural   NaCd4(PO4)3
_chemical_formula_sum   'Na4 Cd16 P12 O48'
_cell_volume   1069.56486496
_cell_formula_units_Z   4
loop_
 _symmetry_equiv_pos_site_id
 _symmetry_equiv_pos_as_xyz
  1  'x, y, z'
loop_
 _atom_site_type_symbol
 _atom_site_label
 _atom_site_symmetry_multiplicity
 _atom_site_fract_x
 _atom_site_fract_y
 _atom_site_fract_z
 _atom_site_occupancy
  Na  Na0  1  0.54911600  0.72383300  0.75000000  1
  Na  Na1  1  0.04911600  0.77616700  0.75000000  1
  Na  Na2  1  0.95088400  0.22383300  0.25000000  1
  Na  Na3  1  0.45088400  0.27616700  0.25000000  1
  Cd  Cd4  1  0.85288600  0.55951800  0.90524700  1
  Cd  Cd5  1  0.35288600  0.94048200  0.59475300  1
  Cd  Cd6  1  0.64711400  0.05951800  0.09475300  1
  Cd  Cd7  1  0.14711400  0.44048200  0.40524700  1
  Cd  Cd8  1  0.14711400  0.44048200  0.09475300  1
  Cd  Cd9  1  0.64711400  0.05951800  0.40524700  1
  Cd  Cd10  1  0.35288600  0.94048200  0.90524700  1
  Cd  Cd11  1  0.85288600  0.55951800  0.59475300  1
  Cd  Cd12  1  0.66081600  0.65955700  0.10915300  1
  Cd  Cd13  1  0.16081600  0.84044300  0.39084700  1
  Cd  Cd14  1  0.83918400  0.15955700  0.89084700  1
  Cd  Cd15  1  0.33918400  0.34044300  0.60915300  1
  Cd  Cd16  1  0.33918400  0.34044300  0.89084700  1
  Cd  Cd17  1  0.83918400  0.15955700  0.60915300  1
  Cd  Cd18  1  0.16081600  0.84044300  0.10915300  1
  Cd  Cd19  1  0.66081600  0.65955700  0.39084700  1
  P  P20  1  0.15207600  0.13362700  0.06716400  1
  P  P21  1  0.65207600  0.36637300  0.43283600  1
  P  P22  1  0.34792400  0.63362700  0.93283600  1
  P  P23  1  0.84792400  0.86637300  0.56716400  1
  P  P24  1  0.00341700  0.41204600  0.75000000  1
  P  P25  1  0.50341700  0.08795400  0.75000000  1
  P  P26  1  0.49658300  0.91204600  0.25000000  1
  P  P27  1  0.99658300  0.58795400  0.25000000  1
  P  P28  1  0.15207600  0.13362700  0.43283600  1
  P  P29  1  0.65207600  0.36637300  0.06716400  1
  P  P30  1  0.34792400  0.63362700  0.56716400  1
  P  P31  1  0.84792400  0.86637300  0.93283600  1
  O  O32  1  0.23165300  0.39094200  0.75000000  1
  O  O33  1  0.73165300  0.10905800  0.75000000  1
  O  O34  1  0.26834700  0.89094200  0.25000000  1
  O  O35  1  0.76834700  0.60905800  0.25000000  1
  O  O36  1  0.94480800  0.55777000  0.75000000  1
  O  O37  1  0.44480800  0.94223000  0.75000000  1
  O  O38  1  0.55519200  0.05777000  0.25000000  1
  O  O39  1  0.05519200  0.44223000  0.25000000  1
  O  O40  1  0.08249800  0.64582300  0.33609600  1
  O  O41  1  0.58249800  0.85417700  0.16390400  1
  O  O42  1  0.41750200  0.14582300  0.66390400  1
  O  O43  1  0.91750200  0.35417700  0.83609600  1
  O  O44  1  0.91750200  0.35417700  0.66390400  1
  O  O45  1  0.41750200  0.14582300  0.83609600  1
  O  O46  1  0.58249800  0.85417700  0.33609600  1
  O  O47  1  0.08249800  0.64582300  0.16390400  1
  O  O48  1  0.89978800  0.78704100  0.01691100  1
  O  O49  1  0.39978800  0.71295900  0.48308900  1
  O  O50  1  0.60021200  0.28704100  0.98308900  1
  O  O51  1  0.67555000  0.96674600  0.95239000  1
  O  O52  1  0.10021200  0.21295900  0.51691100  1
  O  O53  1  0.60021200  0.28704100  0.51691100  1
  O  O54  1  0.39978800  0.71295900  0.01691100  1
  O  O55  1  0.89978800  0.78704100  0.48308900  1
  O  O56  1  0.78572700  0.76932700  0.86119300  1
  O  O57  1  0.28572700  0.73067300  0.63880700  1
  O  O58  1  0.71427300  0.26932700  0.13880700  1
  O  O59  1  0.21427300  0.23067300  0.36119300  1
  O  O60  1  0.21427300  0.23067300  0.13880700  1
  O  O61  1  0.71427300  0.26932700  0.36119300  1
  O  O62  1  0.28572700  0.73067300  0.86119300  1
  O  O63  1  0.78572700  0.76932700  0.63880700  1
  O  O64  1  0.01878500  0.95477400  0.60014200  1
  O  O65  1  0.51878500  0.54522600  0.89985800  1
  O  O66  1  0.48121500  0.45477400  0.39985800  1
  O  O67  1  0.98121500  0.04522600  0.10014200  1
  O  O68  1  0.98121500  0.04522600  0.39985800  1
  O  O69  1  0.48121500  0.45477400  0.10014200  1
  O  O70  1  0.51878500  0.54522600  0.60014200  1
  O  O71  1  0.01878500  0.95477400  0.89985800  1
  O  O72  1  0.67555000  0.96674600  0.54761000  1
  O  O73  1  0.17555000  0.53325400  0.95239000  1
  O  O74  1  0.82445000  0.46674600  0.45239000  1
  O  O75  1  0.32445000  0.03325400  0.04761000  1
  O  O76  1  0.32445000  0.03325400  0.45239000  1
  O  O77  1  0.82445000  0.46674600  0.04761000  1
  O  O78  1  0.17555000  0.53325400  0.54761000  1
  O  O79  1  0.10021200  0.21295900  0.98308900  1
