# generated using pymatgen
data_Cd3As2
_symmetry_space_group_name_H-M   'P 1'
_cell_length_a   9.16923000
_cell_length_b   9.16923000
_cell_length_c   12.90798000
_cell_angle_alpha   90.00000000
_cell_angle_beta   90.00000000
_cell_angle_gamma   90.00000000
_symmetry_Int_Tables_number   1
_chemical_formula_structural   Cd3As2
_chemical_formula_sum   'Cd24 As16'
_cell_volume   1085.23556316
_cell_formula_units_Z   8
loop_
 _symmetry_equiv_pos_site_id
 _symmetry_equiv_pos_as_xyz
  1  'x, y, z'
loop_
 _atom_site_type_symbol
 _atom_site_label
 _atom_site_symmetry_multiplicity
 _atom_site_fract_x
 _atom_site_fract_y
 _atom_site_fract_z
 _atom_site_occupancy
  Cd  Cd0  1  0.50000000  0.74453600  0.14679400  1
  Cd  Cd1  1  0.75546400  0.00000000  0.64679400  1
  Cd  Cd2  1  0.24453600  0.00000000  0.64679400  1
  Cd  Cd3  1  0.00000000  0.75546400  0.35320600  1
  Cd  Cd4  1  0.00000000  0.24453600  0.35320600  1
  Cd  Cd5  1  0.50000000  0.25546400  0.14679400  1
  Cd  Cd6  1  0.74453600  0.50000000  0.85320600  1
  Cd  Cd7  1  0.25546400  0.50000000  0.85320600  1
  Cd  Cd8  1  0.21490700  0.50000000  0.11747500  1
  Cd  Cd9  1  0.78509300  0.50000000  0.11747500  1
  Cd  Cd10  1  0.50000000  0.21490700  0.88252500  1
  Cd  Cd11  1  0.00000000  0.28509300  0.61747500  1
  Cd  Cd12  1  0.00000000  0.71490700  0.61747500  1
  Cd  Cd13  1  0.28509300  0.00000000  0.38252500  1
  Cd  Cd14  1  0.71490700  0.00000000  0.38252500  1
  Cd  Cd15  1  0.50000000  0.78509300  0.88252500  1
  Cd  Cd16  1  0.28238600  0.50000000  0.39506100  1
  Cd  Cd17  1  0.71761400  0.50000000  0.39506100  1
  Cd  Cd18  1  0.50000000  0.28238600  0.60493900  1
  Cd  Cd19  1  0.00000000  0.21761400  0.89506100  1
  Cd  Cd20  1  0.00000000  0.78238600  0.89506100  1
  Cd  Cd21  1  0.21761400  0.00000000  0.10493900  1
  Cd  Cd22  1  0.78238600  0.00000000  0.10493900  1
  Cd  Cd23  1  0.50000000  0.71761400  0.60493900  1
  As  As24  1  0.25590800  0.25590800  0.00000000  1
  As  As25  1  0.24409200  0.75590800  0.50000000  1
  As  As26  1  0.75590800  0.24409200  0.50000000  1
  As  As27  1  0.74409200  0.74409200  0.00000000  1
  As  As28  1  0.24409200  0.24409200  0.50000000  1
  As  As29  1  0.25590800  0.74409200  0.00000000  1
  As  As30  1  0.74409200  0.25590800  0.00000000  1
  As  As31  1  0.75590800  0.75590800  0.50000000  1
  As  As32  1  0.00000000  0.50000000  0.25809200  1
  As  As33  1  0.00000000  0.50000000  0.75809200  1
  As  As34  1  0.50000000  0.00000000  0.24190800  1
  As  As35  1  0.50000000  0.00000000  0.74190800  1
  As  As36  1  0.50000000  0.50000000  0.25488500  1
  As  As37  1  0.00000000  0.00000000  0.75488500  1
  As  As38  1  0.00000000  0.00000000  0.24511500  1
  As  As39  1  0.50000000  0.50000000  0.74511500  1
