# generated using pymatgen
data_BaSrI4
_symmetry_space_group_name_H-M   'P 1'
_cell_length_a   11.34103200
_cell_length_b   10.93873300
_cell_length_c   21.00811906
_cell_angle_alpha   65.67825402
_cell_angle_beta   90.00000000
_cell_angle_gamma   90.00000000
_symmetry_Int_Tables_number   1
_chemical_formula_structural   BaSrI4
_chemical_formula_sum   'Ba8 Sr8 I32'
_cell_volume   2374.88667848
_cell_formula_units_Z   8
loop_
 _symmetry_equiv_pos_site_id
 _symmetry_equiv_pos_as_xyz
  1  'x, y, z'
loop_
 _atom_site_type_symbol
 _atom_site_label
 _atom_site_symmetry_multiplicity
 _atom_site_fract_x
 _atom_site_fract_y
 _atom_site_fract_z
 _atom_site_occupancy
  Ba  Ba0  1  0.97320200  0.24710100  0.15447000  1
  Ba  Ba1  1  0.72099100  0.68921400  0.13608800  1
  Ba  Ba2  1  0.47320200  0.75289900  0.34553000  1
  Ba  Ba3  1  0.22099100  0.31078600  0.36391200  1
  Ba  Ba4  1  0.77900900  0.68921400  0.63608800  1
  Ba  Ba5  1  0.52679800  0.24710100  0.65447000  1
  Ba  Ba6  1  0.27900900  0.31078600  0.86391200  1
  Ba  Ba7  1  0.02679800  0.75289900  0.84553000  1
  Sr  Sr8  1  0.44977300  0.28064300  0.08808400  1
  Sr  Sr9  1  0.17796100  0.84009700  0.08216500  1
  Sr  Sr10  1  0.94977300  0.71935700  0.41191600  1
  Sr  Sr11  1  0.67796100  0.15990300  0.41783500  1
  Sr  Sr12  1  0.32203900  0.84009700  0.58216500  1
  Sr  Sr13  1  0.05022700  0.28064300  0.58808400  1
  Sr  Sr14  1  0.82203900  0.15990300  0.91783500  1
  Sr  Sr15  1  0.55022700  0.71935700  0.91191600  1
  I  I16  1  0.45062300  0.77668200  0.04953400  1
  I  I17  1  0.21085900  0.14978800  0.05779000  1
  I  I18  1  0.68867900  0.46318200  0.04639300  1
  I  I19  1  0.88896700  0.99564400  0.09177800  1
  I  I20  1  0.99950000  0.59642700  0.10078100  1
  I  I21  1  0.55125800  0.98770300  0.18706500  1
  I  I22  1  0.26645900  0.33157500  0.19572300  1
  I  I23  1  0.24752400  0.67806000  0.24790700  1
  I  I24  1  0.74752400  0.32194000  0.25209300  1
  I  I25  1  0.76645900  0.66842500  0.30427700  1
  I  I26  1  0.05125800  0.01229700  0.31293500  1
  I  I27  1  0.49950000  0.40357300  0.39921900  1
  I  I28  1  0.38896700  0.00435600  0.40822200  1
  I  I29  1  0.71085900  0.85021200  0.44221000  1
  I  I30  1  0.18867900  0.53681800  0.45360700  1
  I  I31  1  0.95062300  0.22331800  0.45046600  1
  I  I32  1  0.04937700  0.77668200  0.54953400  1
  I  I33  1  0.81132100  0.46318200  0.54639300  1
  I  I34  1  0.28914100  0.14978800  0.55779000  1
  I  I35  1  0.61103300  0.99564400  0.59177800  1
  I  I36  1  0.50050000  0.59642700  0.60078100  1
  I  I37  1  0.94874200  0.98770300  0.68706500  1
  I  I38  1  0.23354100  0.33157500  0.69572300  1
  I  I39  1  0.25247600  0.67806000  0.74790700  1
  I  I40  1  0.75247600  0.32194000  0.75209300  1
  I  I41  1  0.73354100  0.66842500  0.80427700  1
  I  I42  1  0.44874200  0.01229700  0.81293500  1
  I  I43  1  0.00050000  0.40357300  0.89921900  1
  I  I44  1  0.11103300  0.00435600  0.90822200  1
  I  I45  1  0.31132100  0.53681800  0.95360700  1
  I  I46  1  0.78914100  0.85021200  0.94221000  1
  I  I47  1  0.54937700  0.22331800  0.95046600  1
