# generated using pymatgen
data_Sb2O5
_symmetry_space_group_name_H-M   'P 1'
_cell_length_a   5.10920900
_cell_length_b   8.57722500
_cell_length_c   10.28202350
_cell_angle_alpha   64.18395225
_cell_angle_beta   90.00000000
_cell_angle_gamma   90.00000000
_symmetry_Int_Tables_number   1
_chemical_formula_structural   Sb2O5
_chemical_formula_sum   'Sb8 O20'
_cell_volume   405.61736975
_cell_formula_units_Z   4
loop_
 _symmetry_equiv_pos_site_id
 _symmetry_equiv_pos_as_xyz
  1  'x, y, z'
loop_
 _atom_site_type_symbol
 _atom_site_label
 _atom_site_symmetry_multiplicity
 _atom_site_fract_x
 _atom_site_fract_y
 _atom_site_fract_z
 _atom_site_occupancy
  Sb  Sb0  1  0.47287300  0.19088500  0.94279600  1
  Sb  Sb1  1  0.99880300  0.64927200  0.32934900  1
  Sb  Sb2  1  0.97287300  0.80911500  0.55720400  1
  Sb  Sb3  1  0.50119700  0.64927200  0.82934900  1
  Sb  Sb4  1  0.49880300  0.35072800  0.17065100  1
  Sb  Sb5  1  0.02712700  0.19088500  0.44279600  1
  Sb  Sb6  1  0.00119700  0.35072800  0.67065100  1
  Sb  Sb7  1  0.52712700  0.80911500  0.05720400  1
  O  O8  1  0.73046100  0.00777900  0.05475700  1
  O  O9  1  0.19745600  0.36202000  0.82954800  1
  O  O10  1  0.33629200  0.73514200  0.24792100  1
  O  O11  1  0.14859800  0.58978800  0.54163600  1
  O  O12  1  0.64859800  0.41021200  0.95836400  1
  O  O13  1  0.81658000  0.81667400  0.37342300  1
  O  O14  1  0.69745600  0.63798000  0.67045200  1
  O  O15  1  0.23046100  0.99222100  0.44524300  1
  O  O16  1  0.31658000  0.18332600  0.12657700  1
  O  O17  1  0.16370800  0.73514200  0.74792100  1
  O  O18  1  0.83629200  0.26485800  0.25207900  1
  O  O19  1  0.68342000  0.81667400  0.87342300  1
  O  O20  1  0.76953900  0.00777900  0.55475700  1
  O  O21  1  0.30254400  0.36202000  0.32954800  1
  O  O22  1  0.18342000  0.18332600  0.62657700  1
  O  O23  1  0.35140200  0.58978800  0.04163600  1
  O  O24  1  0.85140200  0.41021200  0.45836400  1
  O  O25  1  0.66370800  0.26485800  0.75207900  1
  O  O26  1  0.80254400  0.63798000  0.17045200  1
  O  O27  1  0.26953900  0.99222100  0.94524300  1
