# generated using pymatgen
data_Na2BiBPO7
_symmetry_space_group_name_H-M   'P 1'
_cell_length_a   7.05963500
_cell_length_b   5.47747000
_cell_length_c   9.49918659
_cell_angle_alpha   87.47612610
_cell_angle_beta   90.00000000
_cell_angle_gamma   90.00000000
_symmetry_Int_Tables_number   1
_chemical_formula_structural   Na2BiBPO7
_chemical_formula_sum   'Na4 Bi2 B2 P2 O14'
_cell_volume   366.96714765
_cell_formula_units_Z   2
loop_
 _symmetry_equiv_pos_site_id
 _symmetry_equiv_pos_as_xyz
  1  'x, y, z'
loop_
 _atom_site_type_symbol
 _atom_site_label
 _atom_site_symmetry_multiplicity
 _atom_site_fract_x
 _atom_site_fract_y
 _atom_site_fract_z
 _atom_site_occupancy
  Na  Na0  1  0.00159800  0.24030700  0.78544100  1
  Na  Na1  1  0.49840200  0.24030700  0.78544100  1
  Na  Na2  1  0.50159800  0.75969300  0.21455900  1
  Na  Na3  1  0.99840200  0.75969300  0.21455900  1
  Bi  Bi4  1  0.75000000  0.78663900  0.63089300  1
  Bi  Bi5  1  0.25000000  0.21336100  0.36910700  1
  B  B6  1  0.75000000  0.73777800  0.91543700  1
  B  B7  1  0.25000000  0.26222200  0.08456300  1
  P  P8  1  0.25000000  0.72595300  0.59312500  1
  P  P9  1  0.75000000  0.27404700  0.40687500  1
  O  O10  1  0.25000000  0.29617600  0.94135100  1
  O  O11  1  0.75000000  0.95928000  0.84108600  1
  O  O12  1  0.75000000  0.52943800  0.83696900  1
  O  O13  1  0.07502800  0.84625000  0.66131900  1
  O  O14  1  0.42497200  0.84625000  0.66131900  1
  O  O15  1  0.75000000  0.20404700  0.57138700  1
  O  O16  1  0.25000000  0.44509500  0.61002900  1
  O  O17  1  0.75000000  0.55490500  0.38997100  1
  O  O18  1  0.25000000  0.79595300  0.42861300  1
  O  O19  1  0.57502800  0.15375000  0.33868100  1
  O  O20  1  0.92497200  0.15375000  0.33868100  1
  O  O21  1  0.25000000  0.47056200  0.16303100  1
  O  O22  1  0.25000000  0.04072000  0.15891400  1
  O  O23  1  0.75000000  0.70382400  0.05864900  1
