# generated using pymatgen
data_Gd3NbO7
_symmetry_space_group_name_H-M   'P 1'
_cell_length_a   7.56820900
_cell_length_b   7.58103200
_cell_length_c   10.76848700
_cell_angle_alpha   90.00000000
_cell_angle_beta   90.00000000
_cell_angle_gamma   90.00000000
_symmetry_Int_Tables_number   1
_chemical_formula_structural   Gd3NbO7
_chemical_formula_sum   'Gd12 Nb4 O28'
_cell_volume   617.84016064
_cell_formula_units_Z   4
loop_
 _symmetry_equiv_pos_site_id
 _symmetry_equiv_pos_as_xyz
  1  'x, y, z'
loop_
 _atom_site_type_symbol
 _atom_site_label
 _atom_site_symmetry_multiplicity
 _atom_site_fract_x
 _atom_site_fract_y
 _atom_site_fract_z
 _atom_site_occupancy
  Gd  Gd0  1  0.29137700  0.01041700  0.75000000  1
  Gd  Gd1  1  0.46220300  0.24896500  0.02148200  1
  Gd  Gd2  1  0.46220300  0.24896500  0.47851800  1
  Gd  Gd3  1  0.96220300  0.25103500  0.52148200  1
  Gd  Gd4  1  0.96220300  0.25103500  0.97851800  1
  Gd  Gd5  1  0.79137700  0.48958300  0.25000000  1
  Gd  Gd6  1  0.20862300  0.51041700  0.75000000  1
  Gd  Gd7  1  0.03779700  0.74896500  0.02148200  1
  Gd  Gd8  1  0.03779700  0.74896500  0.47851800  1
  Gd  Gd9  1  0.53779700  0.75103500  0.52148200  1
  Gd  Gd10  1  0.53779700  0.75103500  0.97851800  1
  Gd  Gd11  1  0.70862300  0.98958300  0.25000000  1
  Nb  Nb12  1  0.24343200  0.99740900  0.25000000  1
  Nb  Nb13  1  0.74343200  0.50259100  0.75000000  1
  Nb  Nb14  1  0.25656800  0.49740900  0.25000000  1
  Nb  Nb15  1  0.75656800  0.00259100  0.75000000  1
  O  O16  1  0.54777100  0.03496300  0.62490000  1
  O  O17  1  0.54777100  0.03496300  0.87510000  1
  O  O18  1  0.08106500  0.04084200  0.11411300  1
  O  O19  1  0.08106500  0.04084200  0.38588700  1
  O  O20  1  0.83078000  0.24861400  0.75000000  1
  O  O21  1  0.22975700  0.25342700  0.61712300  1
  O  O22  1  0.22975700  0.25342700  0.88287700  1
  O  O23  1  0.72975700  0.24657300  0.11712300  1
  O  O24  1  0.72975700  0.24657300  0.38287700  1
  O  O25  1  0.33078000  0.25138600  0.25000000  1
  O  O26  1  0.58106500  0.45915800  0.61411300  1
  O  O27  1  0.58106500  0.45915800  0.88588700  1
  O  O28  1  0.04777100  0.46503700  0.12490000  1
  O  O29  1  0.04777100  0.46503700  0.37510000  1
  O  O30  1  0.95222900  0.53496300  0.62490000  1
  O  O31  1  0.95222900  0.53496300  0.87510000  1
  O  O32  1  0.41893500  0.54084200  0.11411300  1
  O  O33  1  0.41893500  0.54084200  0.38588700  1
  O  O34  1  0.66922000  0.74861400  0.75000000  1
  O  O35  1  0.27024300  0.75342700  0.61712300  1
  O  O36  1  0.27024300  0.75342700  0.88287700  1
  O  O37  1  0.77024300  0.74657300  0.11712300  1
  O  O38  1  0.77024300  0.74657300  0.38287700  1
  O  O39  1  0.16922000  0.75138600  0.25000000  1
  O  O40  1  0.91893500  0.95915800  0.61411300  1
  O  O41  1  0.91893500  0.95915800  0.88588700  1
  O  O42  1  0.45222900  0.96503700  0.12490000  1
  O  O43  1  0.45222900  0.96503700  0.37510000  1
