# generated using pymatgen
data_Er2TiO5
_symmetry_space_group_name_H-M   'P 1'
_cell_length_a   3.60780200
_cell_length_b   7.44975500
_cell_length_c   15.43841800
_cell_angle_alpha   90.00000000
_cell_angle_beta   90.00000000
_cell_angle_gamma   90.00000000
_symmetry_Int_Tables_number   1
_chemical_formula_structural   Er2TiO5
_chemical_formula_sum   'Er8 Ti4 O20'
_cell_volume   414.94208107
_cell_formula_units_Z   4
loop_
 _symmetry_equiv_pos_site_id
 _symmetry_equiv_pos_as_xyz
  1  'x, y, z'
loop_
 _atom_site_type_symbol
 _atom_site_label
 _atom_site_symmetry_multiplicity
 _atom_site_fract_x
 _atom_site_fract_y
 _atom_site_fract_z
 _atom_site_occupancy
  Er  Er0  1  0.25000000  0.10088600  0.08405800  1
  Er  Er1  1  0.25000000  0.16203700  0.73748900  1
  Er  Er2  1  0.75000000  0.33796300  0.23748900  1
  Er  Er3  1  0.75000000  0.39911400  0.58405800  1
  Er  Er4  1  0.25000000  0.60088600  0.41594200  1
  Er  Er5  1  0.25000000  0.66203700  0.76251100  1
  Er  Er6  1  0.75000000  0.83796300  0.26251100  1
  Er  Er7  1  0.75000000  0.89911400  0.91594200  1
  Ti  Ti8  1  0.25000000  0.11411500  0.42330500  1
  Ti  Ti9  1  0.75000000  0.38588500  0.92330500  1
  Ti  Ti10  1  0.25000000  0.61411500  0.07669500  1
  Ti  Ti11  1  0.75000000  0.88588500  0.57669500  1
  O  O12  1  0.75000000  0.06926800  0.17418200  1
  O  O13  1  0.75000000  0.07394400  0.45313200  1
  O  O14  1  0.75000000  0.12197700  0.64845500  1
  O  O15  1  0.75000000  0.15693300  0.99493400  1
  O  O16  1  0.25000000  0.24597200  0.32209400  1
  O  O17  1  0.75000000  0.25402800  0.82209400  1
  O  O18  1  0.25000000  0.34306700  0.49493400  1
  O  O19  1  0.25000000  0.37802300  0.14845500  1
  O  O20  1  0.25000000  0.42605600  0.95313200  1
  O  O21  1  0.25000000  0.43073200  0.67418200  1
  O  O22  1  0.75000000  0.56926800  0.32581800  1
  O  O23  1  0.75000000  0.57394400  0.04686800  1
  O  O24  1  0.75000000  0.62197700  0.85154500  1
  O  O25  1  0.75000000  0.65693300  0.50506600  1
  O  O26  1  0.25000000  0.74597200  0.17790600  1
  O  O27  1  0.75000000  0.75402800  0.67790600  1
  O  O28  1  0.25000000  0.84306700  0.00506600  1
  O  O29  1  0.25000000  0.87802300  0.35154500  1
  O  O30  1  0.25000000  0.92605600  0.54686800  1
  O  O31  1  0.25000000  0.93073200  0.82581800  1
