# generated using pymatgen
data_Cs2SO4
_symmetry_space_group_name_H-M   'P 1'
_cell_length_a   6.22904500
_cell_length_b   8.31394400
_cell_length_c   12.97972100
_cell_angle_alpha   90.00000000
_cell_angle_beta   90.00000000
_cell_angle_gamma   90.00000000
_symmetry_Int_Tables_number   1
_chemical_formula_structural   Cs2SO4
_chemical_formula_sum   'Cs8 S4 O16'
_cell_volume   672.19289949
_cell_formula_units_Z   4
loop_
 _symmetry_equiv_pos_site_id
 _symmetry_equiv_pos_as_xyz
  1  'x, y, z'
loop_
 _atom_site_type_symbol
 _atom_site_label
 _atom_site_symmetry_multiplicity
 _atom_site_fract_x
 _atom_site_fract_y
 _atom_site_fract_z
 _atom_site_occupancy
  Cs  Cs0  1  0.75000000  0.99151000  0.33238800  1
  Cs  Cs1  1  0.75000000  0.17386700  0.05395200  1
  Cs  Cs2  1  0.75000000  0.32613300  0.55395200  1
  Cs  Cs3  1  0.75000000  0.50849000  0.83238800  1
  Cs  Cs4  1  0.25000000  0.49151000  0.16761200  1
  Cs  Cs5  1  0.25000000  0.67386700  0.44604800  1
  Cs  Cs6  1  0.25000000  0.82613300  0.94604800  1
  Cs  Cs7  1  0.25000000  0.00849000  0.66761200  1
  S  S8  1  0.25000000  0.23491000  0.41407200  1
  S  S9  1  0.25000000  0.26509000  0.91407200  1
  S  S10  1  0.75000000  0.73491000  0.08592800  1
  S  S11  1  0.75000000  0.76509000  0.58592800  1
  O  O12  1  0.25000000  0.05507800  0.41436900  1
  O  O13  1  0.05381700  0.20290900  0.86038900  1
  O  O14  1  0.44618300  0.20290900  0.86038900  1
  O  O15  1  0.25000000  0.20485000  0.02382000  1
  O  O16  1  0.25000000  0.29515000  0.52382000  1
  O  O17  1  0.05381700  0.29709100  0.36038900  1
  O  O18  1  0.44618300  0.29709100  0.36038900  1
  O  O19  1  0.25000000  0.44492200  0.91436900  1
  O  O20  1  0.75000000  0.55507800  0.08563100  1
  O  O21  1  0.55381700  0.70290900  0.63961100  1
  O  O22  1  0.94618300  0.70290900  0.63961100  1
  O  O23  1  0.75000000  0.70485000  0.47618000  1
  O  O24  1  0.75000000  0.79515000  0.97618000  1
  O  O25  1  0.55381700  0.79709100  0.13961100  1
  O  O26  1  0.94618300  0.79709100  0.13961100  1
  O  O27  1  0.75000000  0.94492200  0.58563100  1
