# generated using pymatgen
data_Ni4P2O9
_symmetry_space_group_name_H-M   'P 1'
_cell_length_a   11.10269000
_cell_length_b   6.49467900
_cell_length_c   9.23523453
_cell_angle_alpha   74.10709990
_cell_angle_beta   90.00000000
_cell_angle_gamma   90.00000000
_symmetry_Int_Tables_number   1
_chemical_formula_structural   Ni4P2O9
_chemical_formula_sum   'Ni16 P8 O36'
_cell_volume   640.48274003
_cell_formula_units_Z   4
loop_
 _symmetry_equiv_pos_site_id
 _symmetry_equiv_pos_as_xyz
  1  'x, y, z'
loop_
 _atom_site_type_symbol
 _atom_site_label
 _atom_site_symmetry_multiplicity
 _atom_site_fract_x
 _atom_site_fract_y
 _atom_site_fract_z
 _atom_site_occupancy
  Ni  Ni0  1  0.40517200  0.93735300  0.88532300  1
  Ni  Ni1  1  0.09482800  0.93735300  0.38532300  1
  Ni  Ni2  1  0.62096500  0.77004900  0.75163400  1
  Ni  Ni3  1  0.39908100  0.82077800  0.53859300  1
  Ni  Ni4  1  0.87903500  0.77004900  0.25163400  1
  Ni  Ni5  1  0.10091900  0.82077800  0.03859300  1
  Ni  Ni6  1  0.86742200  0.54573200  0.68234500  1
  Ni  Ni7  1  0.36742200  0.45426800  0.81765500  1
  Ni  Ni8  1  0.63257800  0.54573200  0.18234500  1
  Ni  Ni9  1  0.13257800  0.45426800  0.31765500  1
  Ni  Ni10  1  0.89908100  0.17922200  0.96140700  1
  Ni  Ni11  1  0.12096500  0.22995100  0.74836600  1
  Ni  Ni12  1  0.60091900  0.17922200  0.46140700  1
  Ni  Ni13  1  0.37903500  0.22995100  0.24836600  1
  Ni  Ni14  1  0.90517200  0.06264700  0.61467700  1
  Ni  Ni15  1  0.59482800  0.06264700  0.11467700  1
  P  P16  1  0.82927900  0.70547400  0.92382900  1
  P  P17  1  0.13169100  0.75510000  0.68624800  1
  P  P18  1  0.67072100  0.70547400  0.42382900  1
  P  P19  1  0.36830900  0.75510000  0.18624800  1
  P  P20  1  0.63169100  0.24490000  0.81375200  1
  P  P21  1  0.32927900  0.29452600  0.57617100  1
  P  P22  1  0.86830900  0.24490000  0.31375200  1
  P  P23  1  0.17072100  0.29452600  0.07617100  1
  O  O24  1  0.11483300  0.89252800  0.79758600  1
  O  O25  1  0.81034500  0.83498500  0.75410900  1
  O  O26  1  0.21770700  0.86246900  0.55380500  1
  O  O27  1  0.44029000  0.74501000  0.76644300  1
  O  O28  1  0.59459000  0.83639000  0.51075500  1
  O  O29  1  0.69680300  0.66859200  0.97549000  1
  O  O30  1  0.38516700  0.89252800  0.29758600  1
  O  O31  1  0.01023700  0.75705300  0.59827800  1
  O  O32  1  0.68965500  0.83498500  0.25410900  1
  O  O33  1  0.28229300  0.86246900  0.05380500  1
  O  O34  1  0.05971000  0.74501000  0.26644300  1
  O  O35  1  0.90541000  0.83639000  0.01075500  1
  O  O36  1  0.80319700  0.66859200  0.47549000  1
  O  O37  1  0.89641800  0.50404700  0.91450500  1
  O  O38  1  0.48976300  0.75705300  0.09827800  1
  O  O39  1  0.17536700  0.52947500  0.76734800  1
  O  O40  1  0.67536700  0.47052500  0.73265200  1
  O  O41  1  0.39641800  0.49595300  0.58549500  1
  O  O42  1  0.60358200  0.50404700  0.41450500  1
  O  O43  1  0.32463300  0.52947500  0.26734800  1
  O  O44  1  0.82463300  0.47052500  0.23265200  1
  O  O45  1  0.51023700  0.24294700  0.90172200  1
  O  O46  1  0.10358200  0.49595300  0.08549500  1
  O  O47  1  0.19680300  0.33140800  0.52451000  1
  O  O48  1  0.09459000  0.16361000  0.98924500  1
  O  O49  1  0.94029000  0.25499000  0.73355700  1
  O  O50  1  0.71770700  0.13753100  0.94619500  1
  O  O51  1  0.31034500  0.16501500  0.74589100  1
  O  O52  1  0.98976300  0.24294700  0.40172200  1
  O  O53  1  0.61483300  0.10747200  0.70241400  1
  O  O54  1  0.30319700  0.33140800  0.02451000  1
  O  O55  1  0.40541000  0.16361000  0.48924500  1
  O  O56  1  0.55971000  0.25499000  0.23355700  1
  O  O57  1  0.78229300  0.13753100  0.44619500  1
  O  O58  1  0.18965500  0.16501500  0.24589100  1
  O  O59  1  0.88516700  0.10747200  0.20241400  1
