# generated using pymatgen
data_Tb2Zr2O7
_symmetry_space_group_name_H-M   'P 1'
_cell_length_a   7.35064500
_cell_length_b   7.35064500
_cell_length_c   12.68643500
_cell_angle_alpha   90.00000000
_cell_angle_beta   90.00000000
_cell_angle_gamma   90.00000000
_symmetry_Int_Tables_number   1
_chemical_formula_structural   Tb2Zr2O7
_chemical_formula_sum   'Tb8 Zr8 O28'
_cell_volume   685.47322650
_cell_formula_units_Z   4
loop_
 _symmetry_equiv_pos_site_id
 _symmetry_equiv_pos_as_xyz
  1  'x, y, z'
loop_
 _atom_site_type_symbol
 _atom_site_label
 _atom_site_symmetry_multiplicity
 _atom_site_fract_x
 _atom_site_fract_y
 _atom_site_fract_z
 _atom_site_occupancy
  Tb  Tb0  1  0.13771800  0.62712800  0.13491600  1
  Tb  Tb1  1  0.12712800  0.36228200  0.88491600  1
  Tb  Tb2  1  0.37287200  0.86228200  0.36508400  1
  Tb  Tb3  1  0.36228200  0.12712800  0.11508400  1
  Tb  Tb4  1  0.63771800  0.87287200  0.61508400  1
  Tb  Tb5  1  0.62712800  0.13771800  0.86508400  1
  Tb  Tb6  1  0.87287200  0.63771800  0.38491600  1
  Tb  Tb7  1  0.86228200  0.37287200  0.63491600  1
  Zr  Zr8  1  0.10015400  0.87001800  0.59503200  1
  Zr  Zr9  1  0.12998200  0.89984600  0.90496800  1
  Zr  Zr10  1  0.37001800  0.39984600  0.34503200  1
  Zr  Zr11  1  0.39984600  0.37001800  0.65496800  1
  Zr  Zr12  1  0.60015400  0.62998200  0.15496800  1
  Zr  Zr13  1  0.62998200  0.60015400  0.84503200  1
  Zr  Zr14  1  0.87001800  0.10015400  0.40496800  1
  Zr  Zr15  1  0.89984600  0.12998200  0.09503200  1
  O  O16  1  0.06925800  0.90684800  0.41499400  1
  O  O17  1  0.08543700  0.32715600  0.07379400  1
  O  O18  1  0.09315200  0.93074200  0.08500600  1
  O  O19  1  0.15581500  0.63816800  0.95492300  1
  O  O20  1  0.17284400  0.58543700  0.32379400  1
  O  O21  1  0.13816800  0.34418500  0.70492300  1
  O  O22  1  0.15092700  0.84907300  0.75000000  1
  O  O23  1  0.34907300  0.34907300  0.50000000  1
  O  O24  1  0.36183200  0.84418500  0.54507700  1
  O  O25  1  0.32715600  0.08543700  0.92620600  1
  O  O26  1  0.34418500  0.13816800  0.29507700  1
  O  O27  1  0.40684800  0.43074200  0.16499400  1
  O  O28  1  0.41456300  0.82715600  0.17620600  1
  O  O29  1  0.43074200  0.40684800  0.83500600  1
  O  O30  1  0.56925800  0.59315200  0.33500600  1
  O  O31  1  0.58543700  0.17284400  0.67620600  1
  O  O32  1  0.59315200  0.56925800  0.66499400  1
  O  O33  1  0.65581500  0.86183200  0.79507700  1
  O  O34  1  0.67284400  0.91456300  0.42620600  1
  O  O35  1  0.63816800  0.15581500  0.04507700  1
  O  O36  1  0.65092700  0.65092700  0.00000000  1
  O  O37  1  0.84907300  0.15092700  0.25000000  1
  O  O38  1  0.86183200  0.65581500  0.20492300  1
  O  O39  1  0.82715600  0.41456300  0.82379400  1
  O  O40  1  0.84418500  0.36183200  0.45492300  1
  O  O41  1  0.90684800  0.06925800  0.58500600  1
  O  O42  1  0.91456300  0.67284400  0.57379400  1
  O  O43  1  0.93074200  0.09315200  0.91499400  1
