# generated using pymatgen
data_Rb2Be2O3
_symmetry_space_group_name_H-M   'P 1'
_cell_length_a   7.57761200
_cell_length_b   7.57761200
_cell_length_c   7.39162600
_cell_angle_alpha   90.00000000
_cell_angle_beta   90.00000000
_cell_angle_gamma   90.00000000
_symmetry_Int_Tables_number   1
_chemical_formula_structural   Rb2Be2O3
_chemical_formula_sum   'Rb8 Be8 O12'
_cell_volume   424.42867002
_cell_formula_units_Z   4
loop_
 _symmetry_equiv_pos_site_id
 _symmetry_equiv_pos_as_xyz
  1  'x, y, z'
loop_
 _atom_site_type_symbol
 _atom_site_label
 _atom_site_symmetry_multiplicity
 _atom_site_fract_x
 _atom_site_fract_y
 _atom_site_fract_z
 _atom_site_occupancy
  Rb  Rb0  1  0.99587700  0.75379800  0.36303900  1
  Rb  Rb1  1  0.24620200  0.00412300  0.13696100  1
  Rb  Rb2  1  0.25379800  0.50412300  0.61303900  1
  Rb  Rb3  1  0.50412300  0.25379800  0.38696100  1
  Rb  Rb4  1  0.49587700  0.74620200  0.88696100  1
  Rb  Rb5  1  0.74620200  0.49587700  0.11303900  1
  Rb  Rb6  1  0.75379800  0.99587700  0.63696100  1
  Rb  Rb7  1  0.00412300  0.24620200  0.86303900  1
  Be  Be8  1  0.03254500  0.71957700  0.84192900  1
  Be  Be9  1  0.28042300  0.96745500  0.65807100  1
  Be  Be10  1  0.21957700  0.46745500  0.09192900  1
  Be  Be11  1  0.46745500  0.21957700  0.90807100  1
  Be  Be12  1  0.53254500  0.78042300  0.40807100  1
  Be  Be13  1  0.78042300  0.53254500  0.59192900  1
  Be  Be14  1  0.71957700  0.03254500  0.15807100  1
  Be  Be15  1  0.96745500  0.28042300  0.34192900  1
  O  O16  1  0.87161200  0.36670700  0.50627200  1
  O  O17  1  0.38741900  0.38741900  0.00000000  1
  O  O18  1  0.13329300  0.37161200  0.25627200  1
  O  O19  1  0.36670700  0.87161200  0.49372800  1
  O  O20  1  0.11258100  0.88741900  0.75000000  1
  O  O21  1  0.62838800  0.86670700  0.24372800  1
  O  O22  1  0.37161200  0.13329300  0.74372800  1
  O  O23  1  0.88741900  0.11258100  0.25000000  1
  O  O24  1  0.63329300  0.12838800  0.99372800  1
  O  O25  1  0.86670700  0.62838800  0.75627200  1
  O  O26  1  0.61258100  0.61258100  0.50000000  1
  O  O27  1  0.12838800  0.63329300  0.00627200  1
