# generated using pymatgen
data_Ga2HgO4
_symmetry_space_group_name_H-M   'P 1'
_cell_length_a   3.02591500
_cell_length_b   9.32092900
_cell_length_c   10.96201400
_cell_angle_alpha   90.00000000
_cell_angle_beta   90.00000000
_cell_angle_gamma   90.00000000
_symmetry_Int_Tables_number   1
_chemical_formula_structural   Ga2HgO4
_chemical_formula_sum   'Ga8 Hg4 O16'
_cell_volume   309.17635761
_cell_formula_units_Z   4
loop_
 _symmetry_equiv_pos_site_id
 _symmetry_equiv_pos_as_xyz
  1  'x, y, z'
loop_
 _atom_site_type_symbol
 _atom_site_label
 _atom_site_symmetry_multiplicity
 _atom_site_fract_x
 _atom_site_fract_y
 _atom_site_fract_z
 _atom_site_occupancy
  Ga  Ga0  1  0.75000000  0.08069500  0.60565800  1
  Ga  Ga1  1  0.75000000  0.06824800  0.11176500  1
  Ga  Ga2  1  0.25000000  0.43175200  0.61176500  1
  Ga  Ga3  1  0.25000000  0.41930500  0.10565800  1
  Ga  Ga4  1  0.75000000  0.58069500  0.89434200  1
  Ga  Ga5  1  0.75000000  0.56824800  0.38823500  1
  Ga  Ga6  1  0.25000000  0.93175200  0.88823500  1
  Ga  Ga7  1  0.25000000  0.91930500  0.39434200  1
  Hg  Hg8  1  0.75000000  0.24300400  0.34683000  1
  Hg  Hg9  1  0.25000000  0.25699600  0.84683000  1
  Hg  Hg10  1  0.75000000  0.74300400  0.15317000  1
  Hg  Hg11  1  0.25000000  0.75699600  0.65317000  1
  O  O12  1  0.25000000  0.02299900  0.71545200  1
  O  O13  1  0.75000000  0.07506400  0.92899400  1
  O  O14  1  0.25000000  0.11247700  0.48166000  1
  O  O15  1  0.25000000  0.20625900  0.14971400  1
  O  O16  1  0.75000000  0.29374100  0.64971400  1
  O  O17  1  0.75000000  0.38752300  0.98166000  1
  O  O18  1  0.25000000  0.42493600  0.42899400  1
  O  O19  1  0.75000000  0.47700100  0.21545200  1
  O  O20  1  0.25000000  0.52299900  0.78454800  1
  O  O21  1  0.75000000  0.57506400  0.57100600  1
  O  O22  1  0.25000000  0.61247700  0.01834000  1
  O  O23  1  0.25000000  0.70625900  0.35028600  1
  O  O24  1  0.75000000  0.79374100  0.85028600  1
  O  O25  1  0.75000000  0.88752300  0.51834000  1
  O  O26  1  0.25000000  0.92493600  0.07100600  1
  O  O27  1  0.75000000  0.97700100  0.28454800  1
