# generated using pymatgen
data_BaLaCl5
_symmetry_space_group_name_H-M   'P 1'
_cell_length_a   9.77587000
_cell_length_b   9.62124200
_cell_length_c   19.65246177
_cell_angle_alpha   85.65791118
_cell_angle_beta   90.00000000
_cell_angle_gamma   90.00000000
_symmetry_Int_Tables_number   1
_chemical_formula_structural   BaLaCl5
_chemical_formula_sum   'Ba8 La8 Cl40'
_cell_volume   1843.12676524
_cell_formula_units_Z   8
loop_
 _symmetry_equiv_pos_site_id
 _symmetry_equiv_pos_as_xyz
  1  'x, y, z'
loop_
 _atom_site_type_symbol
 _atom_site_label
 _atom_site_symmetry_multiplicity
 _atom_site_fract_x
 _atom_site_fract_y
 _atom_site_fract_z
 _atom_site_occupancy
  Ba  Ba0  1  0.15647700  0.00013600  0.63846400  1
  Ba  Ba1  1  0.34352300  0.00013600  0.13846400  1
  Ba  Ba2  1  0.15589500  0.68345800  0.91401200  1
  Ba  Ba3  1  0.34410500  0.68345800  0.41401200  1
  Ba  Ba4  1  0.65589500  0.31654200  0.58598800  1
  Ba  Ba5  1  0.84410500  0.31654200  0.08598800  1
  Ba  Ba6  1  0.65647700  0.99986400  0.86153600  1
  Ba  Ba7  1  0.84352300  0.99986400  0.36153600  1
  La  La8  1  0.67986600  0.82007600  0.62180100  1
  La  La9  1  0.82013400  0.82007600  0.12180100  1
  La  La10  1  0.62892300  0.50615500  0.83926000  1
  La  La11  1  0.12892300  0.49384500  0.66074000  1
  La  La12  1  0.87107700  0.50615500  0.33926000  1
  La  La13  1  0.37107700  0.49384500  0.16074000  1
  La  La14  1  0.17986600  0.17992400  0.87819900  1
  La  La15  1  0.32013400  0.17992400  0.37819900  1
  Cl  Cl16  1  0.47787100  0.02166500  0.60345100  1
  Cl  Cl17  1  0.82321100  0.97524100  0.71259100  1
  Cl  Cl18  1  0.83396800  0.96747000  0.52605600  1
  Cl  Cl19  1  0.02212900  0.02166500  0.10345100  1
  Cl  Cl20  1  0.67678900  0.97524100  0.21259100  1
  Cl  Cl21  1  0.66603200  0.96747000  0.02605600  1
  Cl  Cl22  1  0.49547000  0.71867200  0.90585200  1
  Cl  Cl23  1  0.53344300  0.68778900  0.72957500  1
  Cl  Cl24  1  0.16147700  0.70871400  0.74712300  1
  Cl  Cl25  1  0.85284600  0.66598300  0.85169800  1
  Cl  Cl26  1  0.20321400  0.70585100  0.56380500  1
  Cl  Cl27  1  0.00453000  0.71867200  0.40585200  1
  Cl  Cl28  1  0.57300900  0.63384300  0.53513100  1
  Cl  Cl29  1  0.96655700  0.68778900  0.22957500  1
  Cl  Cl30  1  0.33852300  0.70871400  0.24712300  1
  Cl  Cl31  1  0.85520500  0.58914100  0.64615900  1
  Cl  Cl32  1  0.64715400  0.66598300  0.35169800  1
  Cl  Cl33  1  0.29678600  0.70585100  0.06380500  1
  Cl  Cl34  1  0.92699100  0.63384300  0.03513100  1
  Cl  Cl35  1  0.64479500  0.58914100  0.14615900  1
  Cl  Cl36  1  0.35520500  0.41085900  0.85384100  1
  Cl  Cl37  1  0.07300900  0.36615700  0.96486900  1
  Cl  Cl38  1  0.70321400  0.29414900  0.93619500  1
  Cl  Cl39  1  0.35284600  0.33401700  0.64830200  1
  Cl  Cl40  1  0.14479500  0.41085900  0.35384100  1
  Cl  Cl41  1  0.66147700  0.29128600  0.75287700  1
  Cl  Cl42  1  0.03344300  0.31221100  0.77042500  1
  Cl  Cl43  1  0.42699100  0.36615700  0.46486900  1
  Cl  Cl44  1  0.99547000  0.28132800  0.59414800  1
  Cl  Cl45  1  0.79678600  0.29414900  0.43619500  1
  Cl  Cl46  1  0.14715400  0.33401700  0.14830200  1
  Cl  Cl47  1  0.83852300  0.29128600  0.25287700  1
  Cl  Cl48  1  0.46655700  0.31221100  0.27042500  1
  Cl  Cl49  1  0.50453000  0.28132800  0.09414800  1
  Cl  Cl50  1  0.33396800  0.03253000  0.97394400  1
  Cl  Cl51  1  0.32321100  0.02475900  0.78740900  1
  Cl  Cl52  1  0.97787100  0.97833500  0.89654900  1
  Cl  Cl53  1  0.16603200  0.03253000  0.47394400  1
  Cl  Cl54  1  0.17678900  0.02475900  0.28740900  1
  Cl  Cl55  1  0.52212900  0.97833500  0.39654900  1
