# generated using pymatgen
data_LaMgI5
_symmetry_space_group_name_H-M   'P 1'
_cell_length_a   12.29427100
_cell_length_b   10.96242500
_cell_length_c   12.61272624
_cell_angle_alpha   77.86115525
_cell_angle_beta   90.00000000
_cell_angle_gamma   90.00000000
_symmetry_Int_Tables_number   1
_chemical_formula_structural   LaMgI5
_chemical_formula_sum   'La4 Mg4 I20'
_cell_volume   1661.87267674
_cell_formula_units_Z   4
loop_
 _symmetry_equiv_pos_site_id
 _symmetry_equiv_pos_as_xyz
  1  'x, y, z'
loop_
 _atom_site_type_symbol
 _atom_site_label
 _atom_site_symmetry_multiplicity
 _atom_site_fract_x
 _atom_site_fract_y
 _atom_site_fract_z
 _atom_site_occupancy
  La  La0  1  0.73861200  0.51095700  0.75275300  1
  La  La1  1  0.23861200  0.48904300  0.74724700  1
  La  La2  1  0.76138800  0.51095700  0.25275300  1
  La  La3  1  0.26138800  0.48904300  0.24724700  1
  Mg  Mg4  1  0.49582900  0.12457500  0.88519700  1
  Mg  Mg5  1  0.00417100  0.12457500  0.38519700  1
  Mg  Mg6  1  0.99582900  0.87542500  0.61480300  1
  Mg  Mg7  1  0.50417100  0.87542500  0.11480300  1
  I  I8  1  0.69139200  0.21832200  0.79484300  1
  I  I9  1  0.29692000  0.19853300  0.79204000  1
  I  I10  1  0.21689800  0.48116300  0.99999300  1
  I  I11  1  0.98688600  0.44508500  0.73167300  1
  I  I12  1  0.50636400  0.86946900  0.89826400  1
  I  I13  1  0.00636400  0.13053100  0.60173600  1
  I  I14  1  0.48688600  0.55491500  0.76832700  1
  I  I15  1  0.80860800  0.21832200  0.29484300  1
  I  I16  1  0.71689800  0.51883700  0.50000700  1
  I  I17  1  0.20308000  0.19853300  0.29204000  1
  I  I18  1  0.79692000  0.80146700  0.70796000  1
  I  I19  1  0.28310200  0.48116300  0.49999300  1
  I  I20  1  0.19139200  0.78167800  0.70515700  1
  I  I21  1  0.51311400  0.44508500  0.23167300  1
  I  I22  1  0.99363600  0.86946900  0.39826400  1
  I  I23  1  0.49363600  0.13053100  0.10173600  1
  I  I24  1  0.01311400  0.55491500  0.26832700  1
  I  I25  1  0.78310200  0.51883700  0.00000700  1
  I  I26  1  0.70308000  0.80146700  0.20796000  1
  I  I27  1  0.30860800  0.78167800  0.20515700  1
