# generated using pymatgen
data_Cs3GaO3
_symmetry_space_group_name_H-M   'P 1'
_cell_length_a   9.33009500
_cell_length_b   9.33009500
_cell_length_c   9.33009500
_cell_angle_alpha   90.00000000
_cell_angle_beta   90.00000000
_cell_angle_gamma   90.00000000
_symmetry_Int_Tables_number   1
_chemical_formula_structural   Cs3GaO3
_chemical_formula_sum   'Cs12 Ga4 O12'
_cell_volume   812.19104619
_cell_formula_units_Z   4
loop_
 _symmetry_equiv_pos_site_id
 _symmetry_equiv_pos_as_xyz
  1  'x, y, z'
loop_
 _atom_site_type_symbol
 _atom_site_label
 _atom_site_symmetry_multiplicity
 _atom_site_fract_x
 _atom_site_fract_y
 _atom_site_fract_z
 _atom_site_occupancy
  Cs  Cs0  1  0.01011000  0.01011000  0.01011000  1
  Cs  Cs1  1  0.22222300  0.27777700  0.72222300  1
  Cs  Cs2  1  0.24500400  0.74500400  0.75499600  1
  Cs  Cs3  1  0.25499600  0.25499600  0.25499600  1
  Cs  Cs4  1  0.27777700  0.72222300  0.22222300  1
  Cs  Cs5  1  0.48989000  0.98989000  0.51011000  1
  Cs  Cs6  1  0.51011000  0.48989000  0.98989000  1
  Cs  Cs7  1  0.72222300  0.22222300  0.27777700  1
  Cs  Cs8  1  0.74500400  0.75499600  0.24500400  1
  Cs  Cs9  1  0.75499600  0.24500400  0.74500400  1
  Cs  Cs10  1  0.77777700  0.77777700  0.77777700  1
  Cs  Cs11  1  0.98989000  0.51011000  0.48989000  1
  Ga  Ga12  1  0.96482300  0.03517700  0.53517700  1
  Ga  Ga13  1  0.53517700  0.96482300  0.03517700  1
  Ga  Ga14  1  0.46482300  0.46482300  0.46482300  1
  Ga  Ga15  1  0.03517700  0.53517700  0.96482300  1
  O  O16  1  0.01415800  0.19970200  0.44357900  1
  O  O17  1  0.05642100  0.98584200  0.69970200  1
  O  O18  1  0.19970200  0.44357900  0.01415800  1
  O  O19  1  0.30029800  0.55642100  0.51415800  1
  O  O20  1  0.44357900  0.01415800  0.19970200  1
  O  O21  1  0.48584200  0.80029800  0.94357900  1
  O  O22  1  0.51415800  0.30029800  0.55642100  1
  O  O23  1  0.55642100  0.51415800  0.30029800  1
  O  O24  1  0.69970200  0.05642100  0.98584200  1
  O  O25  1  0.80029800  0.94357900  0.48584200  1
  O  O26  1  0.94357900  0.48584200  0.80029800  1
  O  O27  1  0.98584200  0.69970200  0.05642100  1
