# generated using pymatgen
data_Rb3ClO
_symmetry_space_group_name_H-M   'P 1'
_cell_length_a   7.74588013
_cell_length_b   7.74588013
_cell_length_c   19.74094400
_cell_angle_alpha   90.00000000
_cell_angle_beta   90.00000000
_cell_angle_gamma   120.00000108
_symmetry_Int_Tables_number   1
_chemical_formula_structural   Rb3ClO
_chemical_formula_sum   'Rb18 Cl6 O6'
_cell_volume   1025.74660157
_cell_formula_units_Z   6
loop_
 _symmetry_equiv_pos_site_id
 _symmetry_equiv_pos_as_xyz
  1  'x, y, z'
loop_
 _atom_site_type_symbol
 _atom_site_label
 _atom_site_symmetry_multiplicity
 _atom_site_fract_x
 _atom_site_fract_y
 _atom_site_fract_z
 _atom_site_occupancy
  Rb  Rb0  1  0.16572700  0.83427300  0.91770900  1
  Rb  Rb1  1  0.16572700  0.83427300  0.58229100  1
  Rb  Rb2  1  0.02761800  0.51380900  0.75000000  1
  Rb  Rb3  1  0.16572700  0.33145500  0.58229100  1
  Rb  Rb4  1  0.16572700  0.33145500  0.91770900  1
  Rb  Rb5  1  0.48619100  0.97238200  0.75000000  1
  Rb  Rb6  1  0.48619100  0.51380900  0.75000000  1
  Rb  Rb7  1  0.33145500  0.16572700  0.08229100  1
  Rb  Rb8  1  0.33145500  0.16572700  0.41770900  1
  Rb  Rb9  1  0.66854500  0.83427300  0.91770900  1
  Rb  Rb10  1  0.66854500  0.83427300  0.58229100  1
  Rb  Rb11  1  0.51380900  0.48619100  0.25000000  1
  Rb  Rb12  1  0.51380900  0.02761800  0.25000000  1
  Rb  Rb13  1  0.83427300  0.66854500  0.08229100  1
  Rb  Rb14  1  0.83427300  0.66854500  0.41770900  1
  Rb  Rb15  1  0.97238200  0.48619100  0.25000000  1
  Rb  Rb16  1  0.83427300  0.16572700  0.08229100  1
  Rb  Rb17  1  0.83427300  0.16572700  0.41770900  1
  Cl  Cl18  1  0.33333300  0.66666700  0.08898700  1
  Cl  Cl19  1  0.00000000  0.00000000  0.25000000  1
  Cl  Cl20  1  0.33333300  0.66666700  0.41101300  1
  Cl  Cl21  1  0.00000000  0.00000000  0.75000000  1
  Cl  Cl22  1  0.66666700  0.33333300  0.58898700  1
  Cl  Cl23  1  0.66666700  0.33333300  0.91101300  1
  O  O24  1  0.33333300  0.66666700  0.83957600  1
  O  O25  1  0.00000000  0.00000000  0.00000000  1
  O  O26  1  0.00000000  0.00000000  0.50000000  1
  O  O27  1  0.33333300  0.66666700  0.66042400  1
  O  O28  1  0.66666700  0.33333300  0.33957600  1
  O  O29  1  0.66666700  0.33333300  0.16042400  1
