# generated using pymatgen
data_La(HO)3
_symmetry_space_group_name_H-M   'P 1'
_cell_length_a   6.77434200
_cell_length_b   10.86601700
_cell_length_c   15.35216266
_cell_angle_alpha   48.72401450
_cell_angle_beta   90.00000000
_cell_angle_gamma   90.00000000
_symmetry_Int_Tables_number   1
_chemical_formula_structural   La(HO)3
_chemical_formula_sum   'La8 H24 O24'
_cell_volume   849.29694847
_cell_formula_units_Z   8
loop_
 _symmetry_equiv_pos_site_id
 _symmetry_equiv_pos_as_xyz
  1  'x, y, z'
loop_
 _atom_site_type_symbol
 _atom_site_label
 _atom_site_symmetry_multiplicity
 _atom_site_fract_x
 _atom_site_fract_y
 _atom_site_fract_z
 _atom_site_occupancy
  La  La0  1  0.46563900  0.16884800  0.83227500  1
  La  La1  1  0.47163800  0.66507600  0.83345900  1
  La  La2  1  0.97163800  0.33492400  0.66654100  1
  La  La3  1  0.96563900  0.83115200  0.66772500  1
  La  La4  1  0.03436100  0.16884800  0.33227500  1
  La  La5  1  0.02836200  0.66507600  0.33345900  1
  La  La6  1  0.52836200  0.33492400  0.16654100  1
  La  La7  1  0.53436100  0.83115200  0.16772500  1
  H  H8  1  0.63884200  0.70123700  0.99848500  1
  H  H9  1  0.78680600  0.91986100  0.96763100  1
  H  H10  1  0.84761700  0.23130000  0.89895800  1
  H  H11  1  0.07528600  0.70182800  0.90450600  1
  H  H12  1  0.77783000  0.49285300  0.80076400  1
  H  H13  1  0.14949000  0.98371300  0.81891700  1
  H  H14  1  0.27783000  0.50714700  0.69923600  1
  H  H15  1  0.64949000  0.01628700  0.68108300  1
  H  H16  1  0.34761700  0.76870000  0.60104200  1
  H  H17  1  0.57528600  0.29817200  0.59549400  1
  H  H18  1  0.86115800  0.70123700  0.49848500  1
  H  H19  1  0.28680600  0.08013900  0.53236900  1
  H  H20  1  0.71319400  0.91986100  0.46763100  1
  H  H21  1  0.13884200  0.29876300  0.50151500  1
  H  H22  1  0.42471400  0.70182800  0.40450600  1
  H  H23  1  0.65238300  0.23130000  0.39895800  1
  H  H24  1  0.35051000  0.98371300  0.31891700  1
  H  H25  1  0.72217000  0.49285300  0.30076400  1
  H  H26  1  0.85051000  0.01628700  0.18108300  1
  H  H27  1  0.22217000  0.50714700  0.19923600  1
  H  H28  1  0.92471400  0.29817200  0.09549400  1
  H  H29  1  0.15238300  0.76870000  0.10104200  1
  H  H30  1  0.21319400  0.08013900  0.03236900  1
  H  H31  1  0.36115800  0.29876300  0.00151500  1
  O  O32  1  0.38245300  0.38939500  0.00001700  1
  O  O33  1  0.64554600  0.90897800  0.98362200  1
  O  O34  1  0.78177500  0.29130500  0.82444700  1
  O  O35  1  0.14605100  0.77419800  0.83087300  1
  O  O36  1  0.76992300  0.59275900  0.78990800  1
  O  O37  1  0.15469900  0.07980500  0.81236000  1
  O  O38  1  0.26992300  0.40724100  0.71009200  1
  O  O39  1  0.28177500  0.70869500  0.67555300  1
  O  O40  1  0.65469900  0.92019500  0.68764000  1
  O  O41  1  0.64605100  0.22580200  0.66912700  1
  O  O42  1  0.88245300  0.61060500  0.49998300  1
  O  O43  1  0.14554600  0.09102200  0.51637800  1
  O  O44  1  0.85445400  0.90897800  0.48362200  1
  O  O45  1  0.11754700  0.38939500  0.50001700  1
  O  O46  1  0.35394900  0.77419800  0.33087300  1
  O  O47  1  0.34530100  0.07980500  0.31236100  1
  O  O48  1  0.71822500  0.29130500  0.32444700  1
  O  O49  1  0.73007700  0.59275900  0.28990800  1
  O  O50  1  0.84530100  0.92019500  0.18764000  1
  O  O51  1  0.23007700  0.40724100  0.21009200  1
  O  O52  1  0.85394900  0.22580200  0.16912700  1
  O  O53  1  0.21822500  0.70869500  0.17555300  1
  O  O54  1  0.35445400  0.09102200  0.01637800  1
  O  O55  1  0.61754700  0.61060500  0.99998300  1
