# generated using pymatgen
data_AlGaO3
_symmetry_space_group_name_H-M   'P 1'
_cell_length_a   4.99509200
_cell_length_b   8.62502800
_cell_length_c   9.15976100
_cell_angle_alpha   90.00000000
_cell_angle_beta   90.00000000
_cell_angle_gamma   90.00000000
_symmetry_Int_Tables_number   1
_chemical_formula_structural   AlGaO3
_chemical_formula_sum   'Al8 Ga8 O24'
_cell_volume   394.62822781
_cell_formula_units_Z   8
loop_
 _symmetry_equiv_pos_site_id
 _symmetry_equiv_pos_as_xyz
  1  'x, y, z'
loop_
 _atom_site_type_symbol
 _atom_site_label
 _atom_site_symmetry_multiplicity
 _atom_site_fract_x
 _atom_site_fract_y
 _atom_site_fract_z
 _atom_site_occupancy
  Al  Al0  1  0.18054200  0.46609300  0.79031900  1
  Al  Al1  1  0.18970600  0.15730600  0.58468300  1
  Al  Al2  1  0.31029400  0.65730600  0.08468300  1
  Al  Al3  1  0.31945800  0.96609300  0.29031900  1
  Al  Al4  1  0.68054200  0.03390700  0.79031900  1
  Al  Al5  1  0.68970600  0.34269400  0.58468300  1
  Al  Al6  1  0.81029400  0.84269400  0.08468300  1
  Al  Al7  1  0.81945800  0.53390700  0.29031900  1
  Ga  Ga8  1  0.18254600  0.14940500  0.99172200  1
  Ga  Ga9  1  0.18631900  0.84208200  0.80760000  1
  Ga  Ga10  1  0.31368100  0.34208200  0.30760000  1
  Ga  Ga11  1  0.31745400  0.64940500  0.49172200  1
  Ga  Ga12  1  0.68254600  0.35059500  0.99172200  1
  Ga  Ga13  1  0.68631900  0.65791800  0.80760000  1
  Ga  Ga14  1  0.81368100  0.15791800  0.30760000  1
  Ga  Ga15  1  0.81745400  0.85059500  0.49172200  1
  O  O16  1  0.03216100  0.33601000  0.93243500  1
  O  O17  1  0.03788400  0.01253900  0.43279300  1
  O  O18  1  0.01945400  0.67927000  0.93469400  1
  O  O19  1  0.14861600  0.83101200  0.17004500  1
  O  O20  1  0.16866900  0.15436100  0.19702500  1
  O  O21  1  0.15033800  0.50795100  0.20307600  1
  O  O22  1  0.34966200  0.00795100  0.70307600  1
  O  O23  1  0.33133100  0.65436100  0.69702500  1
  O  O24  1  0.35138400  0.33101200  0.67004500  1
  O  O25  1  0.48054600  0.17927000  0.43469400  1
  O  O26  1  0.46211600  0.51253900  0.93279300  1
  O  O27  1  0.46783900  0.83601000  0.43243500  1
  O  O28  1  0.53216100  0.16399000  0.93243500  1
  O  O29  1  0.53788400  0.48746100  0.43279300  1
  O  O30  1  0.51945400  0.82073000  0.93469400  1
  O  O31  1  0.64861600  0.66898800  0.17004500  1
  O  O32  1  0.66866900  0.34563900  0.19702500  1
  O  O33  1  0.65033800  0.99204900  0.20307600  1
  O  O34  1  0.84966200  0.49204900  0.70307600  1
  O  O35  1  0.83133100  0.84563900  0.69702500  1
  O  O36  1  0.85138400  0.16898800  0.67004500  1
  O  O37  1  0.98054600  0.32073000  0.43469400  1
  O  O38  1  0.96211600  0.98746100  0.93279300  1
  O  O39  1  0.96783900  0.66399000  0.43243500  1
