# generated using pymatgen
data_Ba5La3I19
_symmetry_space_group_name_H-M   'P 1'
_cell_length_a   12.04978800
_cell_length_b   15.31833445
_cell_length_c   16.01435274
_cell_angle_alpha   88.66979577
_cell_angle_beta   104.86799910
_cell_angle_gamma   96.86788855
_symmetry_Int_Tables_number   1
_chemical_formula_structural   Ba5La3I19
_chemical_formula_sum   'Ba10 La6 I38'
_cell_volume   2836.41857108
_cell_formula_units_Z   2
loop_
 _symmetry_equiv_pos_site_id
 _symmetry_equiv_pos_as_xyz
  1  'x, y, z'
loop_
 _atom_site_type_symbol
 _atom_site_label
 _atom_site_symmetry_multiplicity
 _atom_site_fract_x
 _atom_site_fract_y
 _atom_site_fract_z
 _atom_site_occupancy
  Ba  Ba0  1  0.63861700  0.29445500  0.83656900  1
  Ba  Ba1  1  0.89948500  0.14035200  0.65439600  1
  Ba  Ba2  1  0.71437600  0.65289000  0.78882300  1
  Ba  Ba3  1  0.82479400  0.19028600  0.26219800  1
  Ba  Ba4  1  0.65299900  0.41341300  0.43045600  1
  Ba  Ba5  1  0.34700100  0.58658700  0.56954400  1
  Ba  Ba6  1  0.17520600  0.80971400  0.73780200  1
  Ba  Ba7  1  0.28562400  0.34711000  0.21117700  1
  Ba  Ba8  1  0.10051500  0.85964800  0.34560400  1
  Ba  Ba9  1  0.36138300  0.70554500  0.16343100  1
  La  La10  1  0.16713200  0.46754500  0.82212000  1
  La  La11  1  0.33377900  0.17601100  0.48907000  1
  La  La12  1  0.25460600  0.00519100  0.01243100  1
  La  La13  1  0.74539400  0.99480900  0.98756900  1
  La  La14  1  0.66622100  0.82398900  0.51093000  1
  La  La15  1  0.83286800  0.53245500  0.17788000  1
  I  I16  1  0.50000000  0.00000000  0.00000000  1
  I  I17  1  0.00000000  0.00000000  0.00000000  1
  I  I18  1  0.69971600  0.07260400  0.79575900  1
  I  I19  1  0.18239600  0.02945800  0.80731900  1
  I  I20  1  0.94318300  0.31595400  0.81238700  1
  I  I21  1  0.35106500  0.33724400  0.84946600  1
  I  I22  1  0.69897400  0.02696600  0.47992100  1
  I  I23  1  0.24791500  0.50807900  0.03285000  1
  I  I24  1  0.17766600  0.19588600  0.61149900  1
  I  I25  1  0.59811000  0.23890000  0.60522500  1
  I  I26  1  0.55166800  0.46447100  0.70329500  1
  I  I27  1  0.11247400  0.13159700  0.32570100  1
  I  I28  1  0.10739400  0.45965400  0.62274900  1
  I  I29  1  0.47267400  0.20477200  0.33897400  1
  I  I30  1  0.99842900  0.62562600  0.79802600  1
  I  I31  1  0.86470800  0.27319800  0.46705100  1
  I  I32  1  0.35018400  0.63201200  0.79368800  1
  I  I33  1  0.67852100  0.79815400  0.93562000  1
  I  I34  1  0.23181700  0.79861100  0.96472800  1
  I  I35  1  0.32267000  0.38207900  0.45084100  1
  I  I36  1  0.67733000  0.61792100  0.54915900  1
  I  I37  1  0.76818300  0.20138900  0.03527200  1
  I  I38  1  0.32147900  0.20184600  0.06438000  1
  I  I39  1  0.64981600  0.36798800  0.20631200  1
  I  I40  1  0.13529200  0.72680200  0.53294900  1
  I  I41  1  0.00157100  0.37437400  0.20197400  1
  I  I42  1  0.52732600  0.79522800  0.66102600  1
  I  I43  1  0.89260600  0.54034600  0.37725100  1
  I  I44  1  0.88752600  0.86840300  0.67429900  1
  I  I45  1  0.44833200  0.53552900  0.29670500  1
  I  I46  1  0.40189000  0.76110000  0.39477500  1
  I  I47  1  0.82233400  0.80411400  0.38850100  1
  I  I48  1  0.75208500  0.49192100  0.96715000  1
  I  I49  1  0.30102600  0.97303400  0.52007900  1
  I  I50  1  0.64893500  0.66275600  0.15053400  1
  I  I51  1  0.05681700  0.68404600  0.18761300  1
  I  I52  1  0.81760400  0.97054200  0.19268100  1
  I  I53  1  0.30028400  0.92739600  0.20424100  1
