# generated using pymatgen
data_ErInO3
_symmetry_space_group_name_H-M   'P 1'
_cell_length_a   6.32568310
_cell_length_b   6.32568310
_cell_length_c   12.27734900
_cell_angle_alpha   90.00000000
_cell_angle_beta   90.00000000
_cell_angle_gamma   119.99999058
_symmetry_Int_Tables_number   1
_chemical_formula_structural   ErInO3
_chemical_formula_sum   'Er6 In6 O18'
_cell_volume   425.45157571
_cell_formula_units_Z   6
loop_
 _symmetry_equiv_pos_site_id
 _symmetry_equiv_pos_as_xyz
  1  'x, y, z'
loop_
 _atom_site_type_symbol
 _atom_site_label
 _atom_site_symmetry_multiplicity
 _atom_site_fract_x
 _atom_site_fract_y
 _atom_site_fract_z
 _atom_site_occupancy
  Er  Er0  1  0.33333300  0.66666700  0.23012700  1
  Er  Er1  1  0.00000000  0.00000000  0.26472400  1
  Er  Er2  1  0.00000000  0.00000000  0.76472400  1
  Er  Er3  1  0.33333300  0.66666700  0.73012700  1
  Er  Er4  1  0.66666700  0.33333300  0.73012700  1
  Er  Er5  1  0.66666700  0.33333300  0.23012700  1
  In  In6  1  0.00000000  0.66635800  0.49591000  1
  In  In7  1  0.00000000  0.33364200  0.99591000  1
  In  In8  1  0.33364200  0.33364200  0.49591000  1
  In  In9  1  0.66635800  0.66635800  0.99591000  1
  In  In10  1  0.33364200  0.00000000  0.99591000  1
  In  In11  1  0.66635800  0.00000000  0.49591000  1
  O  O12  1  0.00000000  0.69506600  0.66915200  1
  O  O13  1  0.00000000  0.63625400  0.32460900  1
  O  O14  1  0.00000000  0.36374600  0.82460900  1
  O  O15  1  0.00000000  0.30493400  0.16915200  1
  O  O16  1  0.33333300  0.66666700  0.02821900  1
  O  O17  1  0.00000000  0.00000000  0.46083000  1
  O  O18  1  0.00000000  0.00000000  0.96083000  1
  O  O19  1  0.33333300  0.66666700  0.52821900  1
  O  O20  1  0.30493400  0.30493400  0.66915200  1
  O  O21  1  0.36374600  0.36374600  0.32460900  1
  O  O22  1  0.30493400  0.00000000  0.16915200  1
  O  O23  1  0.63625400  0.63625400  0.82460900  1
  O  O24  1  0.69506600  0.69506600  0.16915200  1
  O  O25  1  0.36374600  0.00000000  0.82460900  1
  O  O26  1  0.66666700  0.33333300  0.52821900  1
  O  O27  1  0.66666700  0.33333300  0.02821900  1
  O  O28  1  0.63625400  0.00000000  0.32460900  1
  O  O29  1  0.69506600  0.00000000  0.66915200  1
