# generated using pymatgen
data_FeH4(SO5)2
_symmetry_space_group_name_H-M   'P 1'
_cell_length_a   6.54559800
_cell_length_b   7.47145672
_cell_length_c   10.47912225
_cell_angle_alpha   94.96724758
_cell_angle_beta   107.94356050
_cell_angle_gamma   113.15278584
_symmetry_Int_Tables_number   1
_chemical_formula_structural   FeH4(SO5)2
_chemical_formula_sum   'Fe2 H8 S4 O20'
_cell_volume   435.46552309
_cell_formula_units_Z   2
loop_
 _symmetry_equiv_pos_site_id
 _symmetry_equiv_pos_as_xyz
  1  'x, y, z'
loop_
 _atom_site_type_symbol
 _atom_site_label
 _atom_site_symmetry_multiplicity
 _atom_site_fract_x
 _atom_site_fract_y
 _atom_site_fract_z
 _atom_site_occupancy
  Fe  Fe0  1  0.50236300  0.48026400  0.75099900  1
  Fe  Fe1  1  0.49763700  0.51973600  0.24900100  1
  H  H2  1  0.66054100  0.19877200  0.79119400  1
  H  H3  1  0.37173100  0.08286300  0.71186800  1
  H  H4  1  0.43949300  0.17846500  0.29950000  1
  H  H5  1  0.40380000  0.15942900  0.13659800  1
  H  H6  1  0.59620000  0.84057100  0.86340200  1
  H  H7  1  0.56050700  0.82153500  0.70050000  1
  H  H8  1  0.62826900  0.91713700  0.28813200  1
  H  H9  1  0.33945900  0.80122800  0.20880600  1
  S  S10  1  0.17413100  0.27572200  0.92629400  1
  S  S11  1  0.18762000  0.26969700  0.41848200  1
  S  S12  1  0.81238000  0.73030300  0.58151800  1
  S  S13  1  0.82586900  0.72427800  0.07370600  1
  O  O14  1  0.29534600  0.14793300  0.95475200  1
  O  O15  1  0.51588800  0.21061600  0.73486900  1
  O  O16  1  0.33089200  0.15850800  0.42860300  1
  O  O17  1  0.91281000  0.16536900  0.87618400  1
  O  O18  1  0.92980100  0.14069600  0.36615500  1
  O  O19  1  0.74409700  0.56636800  0.94431300  1
  O  O20  1  0.23236400  0.38385200  0.81780300  1
  O  O21  1  0.25453300  0.39576300  0.55882600  1
  O  O22  1  0.23535000  0.41041200  0.32419900  1
  O  O23  1  0.50317400  0.24427800  0.23183700  1
  O  O24  1  0.49682600  0.75572200  0.76816300  1
  O  O25  1  0.76465000  0.58958800  0.67580100  1
  O  O26  1  0.74546700  0.60423700  0.44117400  1
  O  O27  1  0.76763600  0.61614800  0.18219700  1
  O  O28  1  0.25590300  0.43363200  0.05568700  1
  O  O29  1  0.07019900  0.85930400  0.63384500  1
  O  O30  1  0.08719000  0.83463100  0.12381600  1
  O  O31  1  0.66910800  0.84149200  0.57139700  1
  O  O32  1  0.48411200  0.78938400  0.26513100  1
  O  O33  1  0.70465400  0.85206700  0.04524800  1
