# generated using pymatgen
data_Lu2Sb2O7
_symmetry_space_group_name_H-M   'P 1'
_cell_length_a   7.50032526
_cell_length_b   7.50032526
_cell_length_c   18.28162700
_cell_angle_alpha   90.00000000
_cell_angle_beta   90.00000000
_cell_angle_gamma   119.99999349
_symmetry_Int_Tables_number   1
_chemical_formula_structural   Lu2Sb2O7
_chemical_formula_sum   'Lu12 Sb12 O42'
_cell_volume   890.64718398
_cell_formula_units_Z   6
loop_
 _symmetry_equiv_pos_site_id
 _symmetry_equiv_pos_as_xyz
  1  'x, y, z'
loop_
 _atom_site_type_symbol
 _atom_site_label
 _atom_site_symmetry_multiplicity
 _atom_site_fract_x
 _atom_site_fract_y
 _atom_site_fract_z
 _atom_site_occupancy
  Lu  Lu0  1  0.00000000  0.84873300  0.66666700  1
  Lu  Lu1  1  0.00000000  0.83219100  0.16666700  1
  Lu  Lu2  1  0.17528700  0.68155900  0.01098500  1
  Lu  Lu3  1  0.15126700  0.15126700  0.00000000  1
  Lu  Lu4  1  0.50627200  0.82471300  0.67765200  1
  Lu  Lu5  1  0.16780900  0.16780900  0.50000000  1
  Lu  Lu6  1  0.31844100  0.49372800  0.34431900  1
  Lu  Lu7  1  0.49372800  0.31844100  0.65568100  1
  Lu  Lu8  1  0.68155900  0.17528700  0.98901500  1
  Lu  Lu9  1  0.82471300  0.50627200  0.32234800  1
  Lu  Lu10  1  0.83219100  0.00000000  0.83333300  1
  Lu  Lu11  1  0.84873300  0.00000000  0.33333300  1
  Sb  Sb12  1  0.00000000  0.32417900  0.16666700  1
  Sb  Sb13  1  0.00000000  0.31426500  0.66666700  1
  Sb  Sb14  1  0.17050200  0.67150700  0.50198300  1
  Sb  Sb15  1  0.50100500  0.82949800  0.16865000  1
  Sb  Sb16  1  0.32849300  0.49899500  0.83531600  1
  Sb  Sb17  1  0.31426500  0.00000000  0.33333300  1
  Sb  Sb18  1  0.67582100  0.67582100  0.50000000  1
  Sb  Sb19  1  0.32417900  0.00000000  0.83333300  1
  Sb  Sb20  1  0.68573500  0.68573500  0.00000000  1
  Sb  Sb21  1  0.49899500  0.32849300  0.16468400  1
  Sb  Sb22  1  0.67150700  0.17050200  0.49801700  1
  Sb  Sb23  1  0.82949800  0.50100500  0.83135000  1
  O  O24  1  0.02491800  0.85337600  0.28346000  1
  O  O25  1  0.97961800  0.80214000  0.80040400  1
  O  O26  1  0.10165400  0.65875400  0.39472600  1
  O  O27  1  0.05549700  0.45105200  0.80418100  1
  O  O28  1  0.32383900  0.99110000  0.95841300  1
  O  O29  1  0.24401200  0.68739700  0.60695900  1
  O  O30  1  0.00890000  0.33273900  0.29174600  1
  O  O31  1  0.19866200  0.68294000  0.13780500  1
  O  O32  1  0.39555600  0.94450300  0.47084700  1
  O  O33  1  0.44338400  0.75598800  0.27362600  1
  O  O34  1  0.48427800  0.80133800  0.80447100  1
  O  O35  1  0.34124600  0.44290000  0.72806000  1
  O  O36  1  0.14662400  0.17154200  0.61679300  1
  O  O37  1  0.31706000  0.51572200  0.47113800  1
  O  O38  1  0.19786000  0.17747800  0.13373700  1
  O  O39  1  0.17154200  0.14662400  0.38320700  1
  O  O40  1  0.31260300  0.55661600  0.94029300  1
  O  O41  1  0.17747800  0.19786000  0.86626300  1
  O  O42  1  0.55710000  0.89834600  0.06139300  1
  O  O43  1  0.54894800  0.60444400  0.13751400  1
  O  O44  1  0.82252200  0.02038200  0.46707100  1
  O  O45  1  0.66726100  0.67616100  0.62507900  1
  O  O46  1  0.44290000  0.34124600  0.27194000  1
  O  O47  1  0.60444400  0.54894800  0.86248600  1
  O  O48  1  0.33273900  0.00890000  0.70825400  1
  O  O49  1  0.82845800  0.97508200  0.95012600  1
  O  O50  1  0.55661600  0.31260300  0.05970700  1
  O  O51  1  0.67616100  0.66726100  0.37492100  1
  O  O52  1  0.51572200  0.31706000  0.52886200  1
  O  O53  1  0.45105200  0.05549700  0.19581900  1
  O  O54  1  0.68739700  0.24401200  0.39304100  1
  O  O55  1  0.68294000  0.19866200  0.86219500  1
  O  O56  1  0.89834600  0.55710000  0.93860700  1
  O  O57  1  0.97508200  0.82845800  0.04987400  1
  O  O58  1  0.80133800  0.48427800  0.19552900  1
  O  O59  1  0.02038200  0.82252200  0.53292900  1
  O  O60  1  0.75598800  0.44338400  0.72637400  1
  O  O61  1  0.65875400  0.10165400  0.60527400  1
  O  O62  1  0.94450300  0.39555600  0.52915300  1
  O  O63  1  0.80214000  0.97961800  0.19959600  1
  O  O64  1  0.99110000  0.32383900  0.04158700  1
  O  O65  1  0.85337600  0.02491800  0.71654000  1
