# generated using pymatgen
data_NiH8(CO5)2
_symmetry_space_group_name_H-M   'P 1'
_cell_length_a   5.97600300
_cell_length_b   6.28013400
_cell_length_c   11.93461789
_cell_angle_alpha   66.30714142
_cell_angle_beta   90.00000000
_cell_angle_gamma   90.00000000
_symmetry_Int_Tables_number   1
_chemical_formula_structural   NiH8(CO5)2
_chemical_formula_sum   'Ni2 H16 C4 O20'
_cell_volume   410.15448669
_cell_formula_units_Z   2
loop_
 _symmetry_equiv_pos_site_id
 _symmetry_equiv_pos_as_xyz
  1  'x, y, z'
loop_
 _atom_site_type_symbol
 _atom_site_label
 _atom_site_symmetry_multiplicity
 _atom_site_fract_x
 _atom_site_fract_y
 _atom_site_fract_z
 _atom_site_occupancy
  Ni  Ni0  1  0.00000000  0.00000000  0.00000000  1
  Ni  Ni1  1  0.50000000  0.00000000  0.50000000  1
  H  H2  1  0.68930800  0.78624000  0.98443600  1
  H  H3  1  0.68330100  0.28287300  0.92944800  1
  H  H4  1  0.91307900  0.42072300  0.88249700  1
  H  H5  1  0.85473600  0.82865800  0.86022500  1
  H  H6  1  0.41307900  0.57927700  0.61750300  1
  H  H7  1  0.18330100  0.71712700  0.57055200  1
  H  H8  1  0.35473600  0.17134200  0.63977500  1
  H  H9  1  0.18930800  0.21376000  0.51556400  1
  H  H10  1  0.81069200  0.78624000  0.48443600  1
  H  H11  1  0.64526400  0.82865800  0.36022500  1
  H  H12  1  0.81669900  0.28287300  0.42944800  1
  H  H13  1  0.58692100  0.42072300  0.38249700  1
  H  H14  1  0.14526400  0.17134200  0.13977500  1
  H  H15  1  0.08692100  0.57927700  0.11750300  1
  H  H16  1  0.31669900  0.71712700  0.07055200  1
  H  H17  1  0.31069200  0.21376000  0.01556400  1
  C  C18  1  0.34533800  0.25363800  0.82379100  1
  C  C19  1  0.84533800  0.74636200  0.67620900  1
  C  C20  1  0.15466200  0.25363800  0.32379100  1
  C  C21  1  0.65466200  0.74636200  0.17620900  1
  O  O22  1  0.84778900  0.28606300  0.95447700  1
  O  O23  1  0.43185400  0.32327100  0.90190000  1
  O  O24  1  0.78702000  0.90526800  0.91386200  1
  O  O25  1  0.16781000  0.11899000  0.84956900  1
  O  O26  1  0.92537400  0.68868800  0.78357200  1
  O  O27  1  0.42537400  0.31131200  0.71642800  1
  O  O28  1  0.66781000  0.88101000  0.65043100  1
  O  O29  1  0.93185400  0.67672900  0.59810000  1
  O  O30  1  0.34778900  0.71393700  0.54552300  1
  O  O31  1  0.28702000  0.09473200  0.58613800  1
  O  O32  1  0.71298000  0.90526800  0.41386200  1
  O  O33  1  0.65221100  0.28606300  0.45447700  1
  O  O34  1  0.06814600  0.32327100  0.40190000  1
  O  O35  1  0.33219000  0.11899000  0.34956900  1
  O  O36  1  0.57462600  0.68868800  0.28357200  1
  O  O37  1  0.07462600  0.31131200  0.21642800  1
  O  O38  1  0.83219000  0.88101000  0.15043100  1
  O  O39  1  0.21298000  0.09473200  0.08613800  1
  O  O40  1  0.56814600  0.67672900  0.09810000  1
  O  O41  1  0.15221100  0.71393700  0.04552300  1
