# generated using pymatgen
data_Ho2WO6
_symmetry_space_group_name_H-M   'P 1'
_cell_length_a   5.27287000
_cell_length_b   8.66672000
_cell_length_c   20.99922500
_cell_angle_alpha   90.00000000
_cell_angle_beta   90.00000000
_cell_angle_gamma   90.00000000
_symmetry_Int_Tables_number   1
_chemical_formula_structural   Ho2WO6
_chemical_formula_sum   'Ho16 W8 O48'
_cell_volume   959.63282929
_cell_formula_units_Z   8
loop_
 _symmetry_equiv_pos_site_id
 _symmetry_equiv_pos_as_xyz
  1  'x, y, z'
loop_
 _atom_site_type_symbol
 _atom_site_label
 _atom_site_symmetry_multiplicity
 _atom_site_fract_x
 _atom_site_fract_y
 _atom_site_fract_z
 _atom_site_occupancy
  Ho  Ho0  1  0.45928300  0.08800500  0.43516400  1
  Ho  Ho1  1  0.41195700  0.10500400  0.66575800  1
  Ho  Ho2  1  0.53624800  0.24510200  0.93170800  1
  Ho  Ho3  1  0.48966900  0.24465800  0.19973900  1
  Ho  Ho4  1  0.98966900  0.25534200  0.80026100  1
  Ho  Ho5  1  0.03624800  0.25489800  0.06829200  1
  Ho  Ho6  1  0.91195700  0.39499600  0.33424200  1
  Ho  Ho7  1  0.95928300  0.41199500  0.56483600  1
  Ho  Ho8  1  0.54071700  0.58800500  0.06483600  1
  Ho  Ho9  1  0.58804300  0.60500400  0.83424200  1
  Ho  Ho10  1  0.46375200  0.74510200  0.56829200  1
  Ho  Ho11  1  0.51033100  0.74465800  0.30026100  1
  Ho  Ho12  1  0.01033100  0.75534200  0.69973900  1
  Ho  Ho13  1  0.96375200  0.75489800  0.43170800  1
  Ho  Ho14  1  0.08804300  0.89499600  0.16575800  1
  Ho  Ho15  1  0.04071700  0.91199500  0.93516400  1
  W  W16  1  0.93579700  0.01691200  0.55669300  1
  W  W17  1  0.98702400  0.02197400  0.31191800  1
  W  W18  1  0.48702400  0.47802600  0.68808200  1
  W  W19  1  0.43579700  0.48308800  0.44330700  1
  W  W20  1  0.06420300  0.51691200  0.94330700  1
  W  W21  1  0.01297600  0.52197400  0.18808200  1
  W  W22  1  0.51297600  0.97802600  0.81191800  1
  W  W23  1  0.56420300  0.98308800  0.05669300  1
  O  O24  1  0.25430400  0.03035700  0.24806500  1
  O  O25  1  0.79669900  0.04724500  0.12206600  1
  O  O26  1  0.77084500  0.05349000  0.87329100  1
  O  O27  1  0.30690900  0.04765700  0.99690600  1
  O  O28  1  0.32050200  0.11083000  0.11957900  1
  O  O29  1  0.78170400  0.12415500  0.00272700  1
  O  O30  1  0.28675500  0.12765700  0.85921600  1
  O  O31  1  0.67875300  0.12560500  0.75416700  1
  O  O32  1  0.12623200  0.17502900  0.36801900  1
  O  O33  1  0.10842400  0.18343200  0.59847600  1
  O  O34  1  0.75944100  0.17457300  0.51483700  1
  O  O35  1  0.77077200  0.18257200  0.27821700  1
  O  O36  1  0.27077200  0.31742800  0.72178300  1
  O  O37  1  0.25944100  0.32542700  0.48516300  1
  O  O38  1  0.60842400  0.31656800  0.40152400  1
  O  O39  1  0.62623200  0.32497100  0.63198100  1
  O  O40  1  0.17875300  0.37439500  0.24583300  1
  O  O41  1  0.78675500  0.37234300  0.14078400  1
  O  O42  1  0.28170400  0.37584500  0.99727300  1
  O  O43  1  0.82050200  0.38917000  0.88042100  1
  O  O44  1  0.80690900  0.45234300  0.00309400  1
  O  O45  1  0.27084500  0.44651000  0.12670900  1
  O  O46  1  0.29669900  0.45275500  0.87793400  1
  O  O47  1  0.75430400  0.46964300  0.75193500  1
  O  O48  1  0.74569600  0.53035700  0.25193500  1
  O  O49  1  0.20330100  0.54724500  0.37793400  1
  O  O50  1  0.22915500  0.55349000  0.62670900  1
  O  O51  1  0.69309100  0.54765700  0.50309400  1
  O  O52  1  0.67949800  0.61083000  0.38042100  1
  O  O53  1  0.21829600  0.62415500  0.49727300  1
  O  O54  1  0.71324500  0.62765700  0.64078400  1
  O  O55  1  0.32124700  0.62560500  0.74583300  1
  O  O56  1  0.87376800  0.67502900  0.13198100  1
  O  O57  1  0.89157600  0.68343200  0.90152400  1
  O  O58  1  0.24055900  0.67457300  0.98516300  1
  O  O59  1  0.22922800  0.68257200  0.22178300  1
  O  O60  1  0.72922800  0.81742800  0.77821700  1
  O  O61  1  0.74055900  0.82542700  0.01483700  1
  O  O62  1  0.39157600  0.81656800  0.09847600  1
  O  O63  1  0.37376800  0.82497100  0.86801900  1
  O  O64  1  0.82124700  0.87439500  0.25416700  1
  O  O65  1  0.21324500  0.87234300  0.35921600  1
  O  O66  1  0.71829600  0.87584500  0.50272700  1
  O  O67  1  0.17949800  0.88917000  0.61957900  1
  O  O68  1  0.19309100  0.95234300  0.49690600  1
  O  O69  1  0.72915500  0.94651000  0.37329100  1
  O  O70  1  0.70330100  0.95275500  0.62206600  1
  O  O71  1  0.24569600  0.96964300  0.74806500  1
