# generated using pymatgen
data_Ca(SeO3)2
_symmetry_space_group_name_H-M   'P 1'
_cell_length_a   12.05855800
_cell_length_b   6.98933700
_cell_length_c   8.88919051
_cell_angle_alpha   53.05972717
_cell_angle_beta   90.00000000
_cell_angle_gamma   90.00000000
_symmetry_Int_Tables_number   1
_chemical_formula_structural   Ca(SeO3)2
_chemical_formula_sum   'Ca4 Se8 O24'
_cell_volume   598.80162497
_cell_formula_units_Z   4
loop_
 _symmetry_equiv_pos_site_id
 _symmetry_equiv_pos_as_xyz
  1  'x, y, z'
loop_
 _atom_site_type_symbol
 _atom_site_label
 _atom_site_symmetry_multiplicity
 _atom_site_fract_x
 _atom_site_fract_y
 _atom_site_fract_z
 _atom_site_occupancy
  Ca  Ca0  1  0.91302100  0.31533400  0.73751700  1
  Ca  Ca1  1  0.41302100  0.68466600  0.76248300  1
  Ca  Ca2  1  0.58697900  0.31533400  0.23751700  1
  Ca  Ca3  1  0.08697900  0.68466600  0.26248300  1
  Se  Se4  1  0.13429700  0.72096600  0.65795700  1
  Se  Se5  1  0.63429700  0.27903400  0.84204300  1
  Se  Se6  1  0.18163800  0.15122400  0.74412500  1
  Se  Se7  1  0.68163800  0.84877600  0.75587500  1
  Se  Se8  1  0.31836200  0.15122400  0.24412500  1
  Se  Se9  1  0.81836200  0.84877600  0.25587500  1
  Se  Se10  1  0.36570300  0.72096600  0.15795700  1
  Se  Se11  1  0.86570300  0.27903400  0.34204300  1
  O  O12  1  0.08684100  0.34888200  0.58821600  1
  O  O13  1  0.51290300  0.38083100  0.73758100  1
  O  O14  1  0.86768500  0.15356200  0.57088400  1
  O  O15  1  0.73483600  0.48639900  0.72881500  1
  O  O16  1  0.23483600  0.51360100  0.77118500  1
  O  O17  1  0.60338700  0.01122800  0.56294100  1
  O  O18  1  0.01290300  0.61916900  0.76241900  1
  O  O19  1  0.19526700  0.95000200  0.65743200  1
  O  O20  1  0.69526700  0.04999800  0.84256800  1
  O  O21  1  0.41315900  0.34888200  0.08821600  1
  O  O22  1  0.10338700  0.98877200  0.93705900  1
  O  O23  1  0.63231500  0.15356200  0.07088400  1
  O  O24  1  0.36768500  0.84643800  0.92911600  1
  O  O25  1  0.89661300  0.01122800  0.06294100  1
  O  O26  1  0.58684100  0.65111800  0.91178400  1
  O  O27  1  0.30473300  0.95000200  0.15743200  1
  O  O28  1  0.80473300  0.04999800  0.34256800  1
  O  O29  1  0.98709700  0.38083100  0.23758100  1
  O  O30  1  0.39661300  0.98877200  0.43705900  1
  O  O31  1  0.76516400  0.48639900  0.22881500  1
  O  O32  1  0.26516400  0.51360100  0.27118500  1
  O  O33  1  0.13231500  0.84643800  0.42911600  1
  O  O34  1  0.48709700  0.61916900  0.26241900  1
  O  O35  1  0.91315900  0.65111800  0.41178400  1
