# generated using pymatgen
data_Na2Ge2O5
_symmetry_space_group_name_H-M   'P 1'
_cell_length_a   12.46260700
_cell_length_b   5.04140400
_cell_length_c   10.10327615
_cell_angle_alpha   60.58819911
_cell_angle_beta   90.00000000
_cell_angle_gamma   90.00000000
_symmetry_Int_Tables_number   1
_chemical_formula_structural   Na2Ge2O5
_chemical_formula_sum   'Na8 Ge8 O20'
_cell_volume   552.96413297
_cell_formula_units_Z   4
loop_
 _symmetry_equiv_pos_site_id
 _symmetry_equiv_pos_as_xyz
  1  'x, y, z'
loop_
 _atom_site_type_symbol
 _atom_site_label
 _atom_site_symmetry_multiplicity
 _atom_site_fract_x
 _atom_site_fract_y
 _atom_site_fract_z
 _atom_site_occupancy
  Na  Na0  1  0.53705900  0.10569400  0.62018300  1
  Na  Na1  1  0.99750700  0.60805700  0.62960400  1
  Na  Na2  1  0.49750700  0.39194300  0.87039600  1
  Na  Na3  1  0.03705900  0.89430600  0.87981700  1
  Na  Na4  1  0.96294100  0.10569400  0.12018300  1
  Na  Na5  1  0.50249300  0.60805700  0.12960400  1
  Na  Na6  1  0.00249300  0.39194300  0.37039600  1
  Na  Na7  1  0.46294100  0.89430600  0.37981700  1
  Ge  Ge8  1  0.69518900  0.64127500  0.55254900  1
  Ge  Ge9  1  0.82399800  0.02108300  0.67529200  1
  Ge  Ge10  1  0.32399800  0.97891700  0.82470800  1
  Ge  Ge11  1  0.19518900  0.35872500  0.94745100  1
  Ge  Ge12  1  0.80481100  0.64127500  0.05254900  1
  Ge  Ge13  1  0.67600200  0.02108300  0.17529200  1
  Ge  Ge14  1  0.17600200  0.97891700  0.32470800  1
  Ge  Ge15  1  0.30481100  0.35872500  0.44745100  1
  O  O16  1  0.71972900  0.27876700  0.56281900  1
  O  O17  1  0.56622500  0.64091800  0.61505200  1
  O  O18  1  0.95616600  0.13129000  0.63353600  1
  O  O19  1  0.80636600  0.69328000  0.65005200  1
  O  O20  1  0.28319200  0.07108300  0.63859900  1
  O  O21  1  0.30636600  0.30672000  0.84994800  1
  O  O22  1  0.78319200  0.92891700  0.86140100  1
  O  O23  1  0.45616600  0.86871000  0.86646400  1
  O  O24  1  0.06622500  0.35908200  0.88494800  1
  O  O25  1  0.21972900  0.72123300  0.93718100  1
  O  O26  1  0.78027100  0.27876700  0.06281900  1
  O  O27  1  0.93377500  0.64091800  0.11505200  1
  O  O28  1  0.54383400  0.13129000  0.13353600  1
  O  O29  1  0.21680800  0.07108300  0.13859900  1
  O  O30  1  0.69363400  0.69328000  0.15005200  1
  O  O31  1  0.71680800  0.92891700  0.36140100  1
  O  O32  1  0.19363400  0.30672000  0.34994800  1
  O  O33  1  0.04383400  0.86871000  0.36646400  1
  O  O34  1  0.43377500  0.35908200  0.38494800  1
  O  O35  1  0.28027100  0.72123300  0.43718100  1
