# generated using pymatgen
data_Y2HfO5
_symmetry_space_group_name_H-M   'P 1'
_cell_length_a   3.74445900
_cell_length_b   10.75468300
_cell_length_c   11.62966600
_cell_angle_alpha   90.00000000
_cell_angle_beta   90.00000000
_cell_angle_gamma   90.00000000
_symmetry_Int_Tables_number   1
_chemical_formula_structural   Y2HfO5
_chemical_formula_sum   'Y8 Hf4 O20'
_cell_volume   468.33211055
_cell_formula_units_Z   4
loop_
 _symmetry_equiv_pos_site_id
 _symmetry_equiv_pos_as_xyz
  1  'x, y, z'
loop_
 _atom_site_type_symbol
 _atom_site_label
 _atom_site_symmetry_multiplicity
 _atom_site_fract_x
 _atom_site_fract_y
 _atom_site_fract_z
 _atom_site_occupancy
  Y  Y0  1  0.25000000  0.12196300  0.22390200  1
  Y  Y1  1  0.25000000  0.13035800  0.56077600  1
  Y  Y2  1  0.75000000  0.36964200  0.06077600  1
  Y  Y3  1  0.75000000  0.37803700  0.72390200  1
  Y  Y4  1  0.25000000  0.62196300  0.27609800  1
  Y  Y5  1  0.25000000  0.63035800  0.93922400  1
  Y  Y6  1  0.75000000  0.86964200  0.43922400  1
  Y  Y7  1  0.75000000  0.87803700  0.77609800  1
  Hf  Hf8  1  0.25000000  0.17014200  0.88568500  1
  Hf  Hf9  1  0.75000000  0.32985800  0.38568500  1
  Hf  Hf10  1  0.25000000  0.67014200  0.61431500  1
  Hf  Hf11  1  0.75000000  0.82985800  0.11431500  1
  O  O12  1  0.75000000  0.00432500  0.60463300  1
  O  O13  1  0.25000000  0.99468300  0.84375200  1
  O  O14  1  0.25000000  0.22984900  0.05144400  1
  O  O15  1  0.75000000  0.24500600  0.88855000  1
  O  O16  1  0.75000000  0.24938100  0.22948400  1
  O  O17  1  0.25000000  0.25061900  0.72948400  1
  O  O18  1  0.25000000  0.25499400  0.38855000  1
  O  O19  1  0.75000000  0.27015100  0.55144400  1
  O  O20  1  0.75000000  0.50531700  0.34375200  1
  O  O21  1  0.25000000  0.49567500  0.10463300  1
  O  O22  1  0.75000000  0.50432500  0.89536700  1
  O  O23  1  0.25000000  0.49468300  0.65624800  1
  O  O24  1  0.25000000  0.72984900  0.44855600  1
  O  O25  1  0.75000000  0.74500600  0.61145000  1
  O  O26  1  0.75000000  0.74938100  0.27051600  1
  O  O27  1  0.25000000  0.75061900  0.77051600  1
  O  O28  1  0.25000000  0.75499400  0.11145000  1
  O  O29  1  0.75000000  0.77015100  0.94855600  1
  O  O30  1  0.75000000  0.00531700  0.15624800  1
  O  O31  1  0.25000000  0.99567500  0.39536700  1
