# generated using pymatgen
data_Na2Ge2O5
_symmetry_space_group_name_H-M   'P 1'
_cell_length_a   5.05538900
_cell_length_b   8.51221200
_cell_length_c   12.70778969
_cell_angle_alpha   76.49863949
_cell_angle_beta   90.00000000
_cell_angle_gamma   90.00000000
_symmetry_Int_Tables_number   1
_chemical_formula_structural   Na2Ge2O5
_chemical_formula_sum   'Na8 Ge8 O20'
_cell_volume   531.73600579
_cell_formula_units_Z   4
loop_
 _symmetry_equiv_pos_site_id
 _symmetry_equiv_pos_as_xyz
  1  'x, y, z'
loop_
 _atom_site_type_symbol
 _atom_site_label
 _atom_site_symmetry_multiplicity
 _atom_site_fract_x
 _atom_site_fract_y
 _atom_site_fract_z
 _atom_site_occupancy
  Na  Na0  1  0.71828100  0.13979000  0.02649700  1
  Na  Na1  1  0.25817400  0.38089200  0.05361600  1
  Na  Na2  1  0.75817400  0.61910800  0.44638400  1
  Na  Na3  1  0.78171900  0.13979000  0.52649700  1
  Na  Na4  1  0.21828100  0.86021000  0.47350300  1
  Na  Na5  1  0.24182600  0.38089200  0.55361600  1
  Na  Na6  1  0.74182600  0.61910800  0.94638400  1
  Na  Na7  1  0.28171900  0.86021000  0.97350300  1
  Ge  Ge8  1  0.79647800  0.40076000  0.22261100  1
  Ge  Ge9  1  0.68165400  0.02240100  0.32231400  1
  Ge  Ge10  1  0.18165400  0.97759900  0.17768600  1
  Ge  Ge11  1  0.29647800  0.59924000  0.27738900  1
  Ge  Ge12  1  0.70352200  0.40076000  0.72261100  1
  Ge  Ge13  1  0.81834600  0.02240100  0.82231400  1
  Ge  Ge14  1  0.31834600  0.97759900  0.67768600  1
  Ge  Ge15  1  0.20352200  0.59924000  0.77738900  1
  O  O16  1  0.25275000  0.10600700  0.05498900  1
  O  O17  1  0.72229600  0.38823200  0.09206400  1
  O  O18  1  0.33080200  0.01157900  0.29805600  1
  O  O19  1  0.14803200  0.44146200  0.22485100  1
  O  O20  1  0.24610800  0.77367800  0.16782800  1
  O  O21  1  0.74610800  0.22632200  0.33217200  1
  O  O22  1  0.64803200  0.55853800  0.27514900  1
  O  O23  1  0.83080200  0.98842100  0.20194400  1
  O  O24  1  0.22229600  0.61176800  0.40793600  1
  O  O25  1  0.24725000  0.10600700  0.55498900  1
  O  O26  1  0.75275000  0.89399300  0.44501100  1
  O  O27  1  0.77770400  0.38823200  0.59206400  1
  O  O28  1  0.16919800  0.01157900  0.79805600  1
  O  O29  1  0.35196800  0.44146200  0.72485100  1
  O  O30  1  0.25389200  0.77367800  0.66782800  1
  O  O31  1  0.75389200  0.22632200  0.83217200  1
  O  O32  1  0.85196800  0.55853800  0.77514900  1
  O  O33  1  0.66919800  0.98842100  0.70194400  1
  O  O34  1  0.27770400  0.61176800  0.90793600  1
  O  O35  1  0.74725000  0.89399300  0.94501100  1
