# generated using pymatgen
data_K3ZnPCO7
_symmetry_space_group_name_H-M   'P 1'
_cell_length_a   7.01203300
_cell_length_b   5.60628400
_cell_length_c   9.68220385
_cell_angle_alpha   89.36648025
_cell_angle_beta   90.00000000
_cell_angle_gamma   90.00000000
_symmetry_Int_Tables_number   1
_chemical_formula_structural   K3ZnPCO7
_chemical_formula_sum   'K6 Zn2 P2 C2 O14'
_cell_volume   380.59819072
_cell_formula_units_Z   2
loop_
 _symmetry_equiv_pos_site_id
 _symmetry_equiv_pos_as_xyz
  1  'x, y, z'
loop_
 _atom_site_type_symbol
 _atom_site_label
 _atom_site_symmetry_multiplicity
 _atom_site_fract_x
 _atom_site_fract_y
 _atom_site_fract_z
 _atom_site_occupancy
  K  K0  1  0.25000000  0.76246700  0.92210400  1
  K  K1  1  0.01110100  0.25863600  0.72790900  1
  K  K2  1  0.48889900  0.25863600  0.72790900  1
  K  K3  1  0.51110100  0.74136400  0.27209100  1
  K  K4  1  0.98889900  0.74136400  0.27209100  1
  K  K5  1  0.75000000  0.23753300  0.07789600  1
  Zn  Zn6  1  0.75000000  0.77398800  0.63521500  1
  Zn  Zn7  1  0.25000000  0.22601200  0.36478500  1
  P  P8  1  0.25000000  0.71858600  0.57413200  1
  P  P9  1  0.75000000  0.28141400  0.42586800  1
  C  C10  1  0.75000000  0.74059000  0.91275800  1
  C  C11  1  0.25000000  0.25941000  0.08724200  1
  O  O12  1  0.25000000  0.26376300  0.95323600  1
  O  O13  1  0.75000000  0.94231800  0.84403800  1
  O  O14  1  0.75000000  0.54359000  0.84206400  1
  O  O15  1  0.07008100  0.75940700  0.66604600  1
  O  O16  1  0.42991900  0.75940700  0.66604600  1
  O  O17  1  0.25000000  0.45273200  0.52435900  1
  O  O18  1  0.75000000  0.11233200  0.55405100  1
  O  O19  1  0.25000000  0.88766800  0.44594900  1
  O  O20  1  0.75000000  0.54726800  0.47564100  1
  O  O21  1  0.57008100  0.24059300  0.33395400  1
  O  O22  1  0.92991900  0.24059300  0.33395400  1
  O  O23  1  0.25000000  0.45641000  0.15793600  1
  O  O24  1  0.25000000  0.05768200  0.15596200  1
  O  O25  1  0.75000000  0.73623700  0.04676400  1
