# generated using pymatgen
data_Dy2Ge2O7
_symmetry_space_group_name_H-M   'P 1'
_cell_length_a   6.81969300
_cell_length_b   6.84493355
_cell_length_c   12.42329283
_cell_angle_alpha   94.82047155
_cell_angle_beta   91.96564489
_cell_angle_gamma   91.85950671
_symmetry_Int_Tables_number   1
_chemical_formula_structural   Dy2Ge2O7
_chemical_formula_sum   'Dy8 Ge8 O28'
_cell_volume   577.16874576
_cell_formula_units_Z   4
loop_
 _symmetry_equiv_pos_site_id
 _symmetry_equiv_pos_as_xyz
  1  'x, y, z'
loop_
 _atom_site_type_symbol
 _atom_site_label
 _atom_site_symmetry_multiplicity
 _atom_site_fract_x
 _atom_site_fract_y
 _atom_site_fract_z
 _atom_site_occupancy
  Dy  Dy0  1  0.04924100  0.33267700  0.11235600  1
  Dy  Dy1  1  0.11161500  0.09119200  0.35738000  1
  Dy  Dy2  1  0.31384100  0.83380600  0.11650200  1
  Dy  Dy3  1  0.37504000  0.21062100  0.63153400  1
  Dy  Dy4  1  0.62496000  0.78937900  0.36846600  1
  Dy  Dy5  1  0.68615900  0.16619400  0.88349800  1
  Dy  Dy6  1  0.88838500  0.90880800  0.64262000  1
  Dy  Dy7  1  0.95075900  0.66732300  0.88764400  1
  Ge  Ge8  1  0.13902100  0.62228700  0.37688200  1
  Ge  Ge9  1  0.16673500  0.14284400  0.88505200  1
  Ge  Ge10  1  0.38859000  0.72377600  0.59978700  1
  Ge  Ge11  1  0.51495600  0.33811800  0.16668900  1
  Ge  Ge12  1  0.48504400  0.66188200  0.83331100  1
  Ge  Ge13  1  0.61141000  0.27622400  0.40021300  1
  Ge  Ge14  1  0.83326500  0.85715600  0.11494800  1
  Ge  Ge15  1  0.86097900  0.37771300  0.62311800  1
  O  O16  1  0.00190200  0.66517300  0.08090200  1
  O  O17  1  0.98974000  0.97710300  0.81580900  1
  O  O18  1  0.04584400  0.21798900  0.57595300  1
  O  O19  1  0.06517600  0.40261500  0.30242500  1
  O  O20  1  0.24402600  0.09498500  0.01604800  1
  O  O21  1  0.22391200  0.90999900  0.62687900  1
  O  O22  1  0.28639100  0.79482000  0.31046500  1
  O  O23  1  0.29854100  0.55858200  0.48589900  1
  O  O24  1  0.28763400  0.71433900  0.91618400  1
  O  O25  1  0.36753400  0.20828700  0.81183500  1
  O  O26  1  0.34213600  0.49642500  0.11809300  1
  O  O27  1  0.39285500  0.13739400  0.22123400  1
  O  O28  1  0.40308100  0.15709900  0.44960600  1
  O  O29  1  0.39635800  0.54389600  0.69674300  1
  O  O30  1  0.60364200  0.45610400  0.30325700  1
  O  O31  1  0.59691900  0.84290100  0.55039400  1
  O  O32  1  0.60714500  0.86260600  0.77876600  1
  O  O33  1  0.65786400  0.50357500  0.88190700  1
  O  O34  1  0.63246600  0.79171300  0.18816500  1
  O  O35  1  0.71236600  0.28566100  0.08381600  1
  O  O36  1  0.70145900  0.44141800  0.51410100  1
  O  O37  1  0.71360900  0.20518000  0.68953500  1
  O  O38  1  0.77608800  0.09000100  0.37312100  1
  O  O39  1  0.75597400  0.90501500  0.98395200  1
  O  O40  1  0.93482400  0.59738500  0.69757500  1
  O  O41  1  0.95415600  0.78201100  0.42404700  1
  O  O42  1  0.01026000  0.02289700  0.18419100  1
  O  O43  1  0.99809800  0.33482700  0.91909800  1
