# generated using pymatgen
data_Ba6Sr11I34
_symmetry_space_group_name_H-M   'P 1'
_cell_length_a   11.95384400
_cell_length_b   15.47389640
_cell_length_c   15.59150860
_cell_angle_alpha   81.44675341
_cell_angle_beta   70.14638977
_cell_angle_gamma   71.15520044
_symmetry_Int_Tables_number   1
_chemical_formula_structural   Ba6Sr11I34
_chemical_formula_sum   'Ba6 Sr11 I34'
_cell_volume   2564.71413676
_cell_formula_units_Z   1
loop_
 _symmetry_equiv_pos_site_id
 _symmetry_equiv_pos_as_xyz
  1  'x, y, z'
loop_
 _atom_site_type_symbol
 _atom_site_label
 _atom_site_symmetry_multiplicity
 _atom_site_fract_x
 _atom_site_fract_y
 _atom_site_fract_z
 _atom_site_occupancy
  Ba  Ba0  1  0.33385100  0.33900300  0.00444600  1
  Ba  Ba1  1  0.25427000  0.66975600  0.31775500  1
  Ba  Ba2  1  0.41586600  0.03748200  0.79015500  1
  Ba  Ba3  1  0.58413400  0.96251800  0.20984500  1
  Ba  Ba4  1  0.74573000  0.33024400  0.68224500  1
  Ba  Ba5  1  0.66614900  0.66099700  0.99555400  1
  Sr  Sr6  1  0.00000000  0.00000000  0.50000000  1
  Sr  Sr7  1  0.19036700  0.99946400  0.17890100  1
  Sr  Sr8  1  0.10998500  0.74518100  0.01856200  1
  Sr  Sr9  1  0.26004500  0.27003700  0.37332200  1
  Sr  Sr10  1  0.18664900  0.49024400  0.70454300  1
  Sr  Sr11  1  0.32317400  0.75374600  0.68735400  1
  Sr  Sr12  1  0.67682600  0.24625400  0.31264600  1
  Sr  Sr13  1  0.81335100  0.50975600  0.29545700  1
  Sr  Sr14  1  0.73995500  0.72996300  0.62667800  1
  Sr  Sr15  1  0.89001500  0.25481900  0.98143800  1
  Sr  Sr16  1  0.80963300  0.00053600  0.82109900  1
  I  I17  1  0.16917500  0.11961500  0.99177400  1
  I  I18  1  0.11778300  0.40509700  0.23063900  1
  I  I19  1  0.07454400  0.17226500  0.53054600  1
  I  I20  1  0.34151500  0.14624200  0.18928600  1
  I  I21  1  0.05804000  0.83930900  0.20450100  1
  I  I22  1  0.08324300  0.38118000  0.90314500  1
  I  I23  1  0.16722600  0.39379400  0.54829800  1
  I  I24  1  0.36080800  0.61705700  0.07214100  1
  I  I25  1  0.43888400  0.39913000  0.27231800  1
  I  I26  1  0.04398900  0.87114500  0.67795400  1
  I  I27  1  0.51141700  0.10303600  0.39833600  1
  I  I28  1  0.17799300  0.62989700  0.84413300  1
  I  I29  1  0.28466000  0.89360800  0.35742200  1
  I  I30  1  0.30666000  0.62911700  0.53617100  1
  I  I31  1  0.46551600  0.87531600  0.07491800  1
  I  I32  1  0.75635400  0.11821800  0.13400900  1
  I  I33  1  0.43419500  0.35306900  0.75985000  1
  I  I34  1  0.56580500  0.64693100  0.24015000  1
  I  I35  1  0.24364600  0.88178200  0.86599100  1
  I  I36  1  0.53448400  0.12468400  0.92508200  1
  I  I37  1  0.69334000  0.37088300  0.46382900  1
  I  I38  1  0.71534000  0.10639200  0.64257800  1
  I  I39  1  0.82200700  0.37010300  0.15586700  1
  I  I40  1  0.48858300  0.89696400  0.60166500  1
  I  I41  1  0.95601100  0.12885500  0.32204600  1
  I  I42  1  0.56111600  0.60087000  0.72768200  1
  I  I43  1  0.63919200  0.38294300  0.92785900  1
  I  I44  1  0.83277400  0.60620600  0.45170200  1
  I  I45  1  0.91675700  0.61882000  0.09685500  1
  I  I46  1  0.94196000  0.16069100  0.79549900  1
  I  I47  1  0.65848500  0.85375800  0.81071400  1
  I  I48  1  0.92545600  0.82773500  0.46945400  1
  I  I49  1  0.88221700  0.59490300  0.76936100  1
  I  I50  1  0.83082500  0.88038500  0.00822600  1
