# generated using pymatgen
data_Er2P4O13
_symmetry_space_group_name_H-M   'P 1'
_cell_length_a   9.61420600
_cell_length_b   8.78152600
_cell_length_c   13.89914667
_cell_angle_alpha   73.79097783
_cell_angle_beta   90.00000000
_cell_angle_gamma   90.00000000
_symmetry_Int_Tables_number   1
_chemical_formula_structural   Er2P4O13
_chemical_formula_sum   'Er8 P16 O52'
_cell_volume   1126.82312651
_cell_formula_units_Z   4
loop_
 _symmetry_equiv_pos_site_id
 _symmetry_equiv_pos_as_xyz
  1  'x, y, z'
loop_
 _atom_site_type_symbol
 _atom_site_label
 _atom_site_symmetry_multiplicity
 _atom_site_fract_x
 _atom_site_fract_y
 _atom_site_fract_z
 _atom_site_occupancy
  Er  Er0  1  0.99691200  0.97282900  0.72137600  1
  Er  Er1  1  0.50308800  0.97282900  0.22137600  1
  Er  Er2  1  0.00127200  0.55303300  0.73775300  1
  Er  Er3  1  0.50127200  0.44696700  0.76224700  1
  Er  Er4  1  0.49872800  0.55303300  0.23775300  1
  Er  Er5  1  0.99872800  0.44696700  0.26224700  1
  Er  Er6  1  0.49691200  0.02717100  0.77862400  1
  Er  Er7  1  0.00308800  0.02717100  0.27862400  1
  P  P8  1  0.75996600  0.85471200  0.93703600  1
  P  P9  1  0.27007700  0.71181800  0.84619500  1
  P  P10  1  0.70534700  0.78315100  0.65707000  1
  P  P11  1  0.74003400  0.85471200  0.43703600  1
  P  P12  1  0.74991700  0.50423700  0.93964600  1
  P  P13  1  0.22992300  0.71181800  0.34619500  1
  P  P14  1  0.79465300  0.78315100  0.15707000  1
  P  P15  1  0.24991700  0.49576300  0.56035400  1
  P  P16  1  0.75008300  0.50423700  0.43964600  1
  P  P17  1  0.20534700  0.21684900  0.84293000  1
  P  P18  1  0.77007700  0.28818200  0.65380500  1
  P  P19  1  0.25008300  0.49576300  0.06035400  1
  P  P20  1  0.25996600  0.14528800  0.56296400  1
  P  P21  1  0.29465300  0.21684900  0.34293000  1
  P  P22  1  0.72992300  0.28818200  0.15380500  1
  P  P23  1  0.24003400  0.14528800  0.06296400  1
  O  O24  1  0.63371600  0.96029500  0.91252600  1
  O  O25  1  0.87812900  0.88922100  0.86333000  1
  O  O26  1  0.33701700  0.86180300  0.85851400  1
  O  O27  1  0.62939200  0.88121300  0.71462700  1
  O  O28  1  0.86628400  0.96029500  0.41252600  1
  O  O29  1  0.67689900  0.87043400  0.54016100  1
  O  O30  1  0.70496800  0.67231100  0.95970000  1
  O  O31  1  0.13614400  0.74736000  0.78036900  1
  O  O32  1  0.86632600  0.78084000  0.67286000  1
  O  O33  1  0.62187100  0.88922100  0.36333000  1
  O  O34  1  0.20856200  0.60754000  0.95296100  1
  O  O35  1  0.16298300  0.86180300  0.35851400  1
  O  O36  1  0.87060800  0.88121300  0.21462700  1
  O  O37  1  0.37226700  0.60971100  0.80928200  1
  O  O38  1  0.87967200  0.52985800  0.87697500  1
  O  O39  1  0.64797200  0.61681200  0.67580200  1
  O  O40  1  0.82310100  0.87043400  0.04016100  1
  O  O41  1  0.79503200  0.67231100  0.45970000  1
  O  O42  1  0.36385600  0.74736000  0.28036900  1
  O  O43  1  0.63367400  0.78084000  0.17286000  1
  O  O44  1  0.12549800  0.56452700  0.59927300  1
  O  O45  1  0.29143800  0.60754000  0.45296100  1
  O  O46  1  0.62549800  0.43547300  0.90072700  1
  O  O47  1  0.14797200  0.38318800  0.82419800  1
  O  O48  1  0.37967200  0.47014200  0.62302500  1
  O  O49  1  0.12773300  0.60971100  0.30928200  1
  O  O50  1  0.87226700  0.39028900  0.69071800  1
  O  O51  1  0.62032800  0.52985800  0.37697500  1
  O  O52  1  0.85202800  0.61681200  0.17580200  1
  O  O53  1  0.37450200  0.56452700  0.09927300  1
  O  O54  1  0.70856200  0.39246000  0.54703900  1
  O  O55  1  0.87450200  0.43547300  0.40072700  1
  O  O56  1  0.36632600  0.21916000  0.82714000  1
  O  O57  1  0.63614400  0.25264000  0.71963100  1
  O  O58  1  0.20496800  0.32768900  0.54030000  1
  O  O59  1  0.17689900  0.12956600  0.95983900  1
  O  O60  1  0.35202800  0.38318800  0.32419800  1
  O  O61  1  0.12032800  0.47014200  0.12302500  1
  O  O62  1  0.62773300  0.39028900  0.19071800  1
  O  O63  1  0.12939200  0.11878700  0.78537300  1
  O  O64  1  0.83701700  0.13819700  0.64148600  1
  O  O65  1  0.79143800  0.39246000  0.04703900  1
  O  O66  1  0.37812900  0.11077900  0.63667000  1
  O  O67  1  0.13367400  0.21916000  0.32714000  1
  O  O68  1  0.86385600  0.25264000  0.21963100  1
  O  O69  1  0.29503200  0.32768900  0.04030000  1
  O  O70  1  0.32310100  0.12956600  0.45983900  1
  O  O71  1  0.13371600  0.03970500  0.58747400  1
  O  O72  1  0.37060800  0.11878700  0.28537300  1
  O  O73  1  0.66298300  0.13819700  0.14148600  1
  O  O74  1  0.12187100  0.11077900  0.13667000  1
  O  O75  1  0.36628400  0.03970500  0.08747400  1
