# generated using pymatgen
data_Er2P4O13
_symmetry_space_group_name_H-M   'P 1'
_cell_length_a   9.73301600
_cell_length_b   8.69087900
_cell_length_c   14.03224775
_cell_angle_alpha   74.83165319
_cell_angle_beta   90.00000000
_cell_angle_gamma   90.00000000
_symmetry_Int_Tables_number   1
_chemical_formula_structural   Er2P4O13
_chemical_formula_sum   'Er8 P16 O52'
_cell_volume   1145.61380105
_cell_formula_units_Z   4
loop_
 _symmetry_equiv_pos_site_id
 _symmetry_equiv_pos_as_xyz
  1  'x, y, z'
loop_
 _atom_site_type_symbol
 _atom_site_label
 _atom_site_symmetry_multiplicity
 _atom_site_fract_x
 _atom_site_fract_y
 _atom_site_fract_z
 _atom_site_occupancy
  Er  Er0  1  0.99916900  0.71545400  0.98964600  1
  Er  Er1  1  0.99588800  0.78680400  0.51224400  1
  Er  Er2  1  0.50083100  0.71545400  0.48964600  1
  Er  Er3  1  0.50411200  0.78680400  0.01224400  1
  Er  Er4  1  0.49588800  0.21319600  0.98775600  1
  Er  Er5  1  0.49916900  0.28454600  0.51035400  1
  Er  Er6  1  0.00411200  0.21319600  0.48775600  1
  Er  Er7  1  0.00083100  0.28454600  0.01035400  1
  P  P8  1  0.71922800  0.96971000  0.59520100  1
  P  P9  1  0.75472200  0.88556900  0.81418800  1
  P  P10  1  0.26859900  0.76367400  0.68397800  1
  P  P11  1  0.78077200  0.96971000  0.09520100  1
  P  P12  1  0.74527800  0.88556900  0.31418800  1
  P  P13  1  0.28106600  0.54038400  0.90141100  1
  P  P14  1  0.23140100  0.76367400  0.18397800  1
  P  P15  1  0.78106600  0.45961600  0.59858900  1
  P  P16  1  0.21893400  0.54038400  0.40141100  1
  P  P17  1  0.76859900  0.23632600  0.81602200  1
  P  P18  1  0.71893400  0.45961600  0.09858900  1
  P  P19  1  0.25472200  0.11443100  0.68581200  1
  P  P20  1  0.21922800  0.03029000  0.90479900  1
  P  P21  1  0.73140100  0.23632600  0.31602200  1
  P  P22  1  0.24527800  0.11443100  0.18581200  1
  P  P23  1  0.28077200  0.03029000  0.40479900  1
  O  O24  1  0.30932200  0.93163500  0.70674000  1
  O  O25  1  0.15234700  0.87391100  0.90199700  1
  O  O26  1  0.87105000  0.98869000  0.55931500  1
  O  O27  1  0.62441000  0.86099600  0.87351400  1
  O  O28  1  0.72252600  0.86098300  0.70797400  1
  O  O29  1  0.63727300  0.87526800  0.53823200  1
  O  O30  1  0.87209800  0.77440000  0.85486900  1
  O  O31  1  0.19067800  0.93163500  0.20674000  1
  O  O32  1  0.34765300  0.87391100  0.40199700  1
  O  O33  1  0.62895000  0.98869000  0.05931500  1
  O  O34  1  0.36781100  0.63700300  0.95456500  1
  O  O35  1  0.12536800  0.77179400  0.64300000  1
  O  O36  1  0.87559000  0.86099600  0.37351400  1
  O  O37  1  0.77747400  0.86098300  0.20797400  1
  O  O38  1  0.38108900  0.71914700  0.62255300  1
  O  O39  1  0.27056800  0.63744200  0.78745300  1
  O  O40  1  0.86272700  0.87526800  0.03823200  1
  O  O41  1  0.84689300  0.61812700  0.59789300  1
  O  O42  1  0.12956400  0.51832800  0.94068900  1
  O  O43  1  0.62790200  0.77440000  0.35486900  1
  O  O44  1  0.13218900  0.63700300  0.45456500  1
  O  O45  1  0.37463200  0.77179400  0.14300000  1
  O  O46  1  0.11891100  0.71914700  0.12255300  1
  O  O47  1  0.22943200  0.63744200  0.28745300  1
  O  O48  1  0.62956400  0.48167200  0.55931100  1
  O  O49  1  0.34689300  0.38187300  0.90210700  1
  O  O50  1  0.65310700  0.61812700  0.09789300  1
  O  O51  1  0.37043600  0.51832800  0.44068900  1
  O  O52  1  0.77056800  0.36255800  0.71254700  1
  O  O53  1  0.88108900  0.28085300  0.87744700  1
  O  O54  1  0.62536800  0.22820600  0.85700000  1
  O  O55  1  0.86781100  0.36299700  0.54543500  1
  O  O56  1  0.37209800  0.22560000  0.64513100  1
  O  O57  1  0.87043600  0.48167200  0.05931100  1
  O  O58  1  0.15310700  0.38187300  0.40210700  1
  O  O59  1  0.13727300  0.12473200  0.96176800  1
  O  O60  1  0.72943200  0.36255800  0.21254700  1
  O  O61  1  0.61891100  0.28085300  0.37744700  1
  O  O62  1  0.22252600  0.13901700  0.79202600  1
  O  O63  1  0.12441000  0.13900400  0.62648600  1
  O  O64  1  0.87463200  0.22820600  0.35700000  1
  O  O65  1  0.63218900  0.36299700  0.04543500  1
  O  O66  1  0.37105000  0.01131000  0.94068500  1
  O  O67  1  0.65234700  0.12608900  0.59800300  1
  O  O68  1  0.80932200  0.06836500  0.79326000  1
  O  O69  1  0.12790200  0.22560000  0.14513100  1
  O  O70  1  0.36272700  0.12473200  0.46176800  1
  O  O71  1  0.27747400  0.13901700  0.29202600  1
  O  O72  1  0.37559000  0.13900400  0.12648600  1
  O  O73  1  0.12895000  0.01131000  0.44068500  1
  O  O74  1  0.84765300  0.12608900  0.09800300  1
  O  O75  1  0.69067800  0.06836500  0.29326000  1
