# generated using pymatgen
data_Nb6CdO16
_symmetry_space_group_name_H-M   'P 1'
_cell_length_a   7.91001300
_cell_length_b   9.18434900
_cell_length_c   17.14183500
_cell_angle_alpha   90.00000000
_cell_angle_beta   90.00000000
_cell_angle_gamma   90.00000000
_symmetry_Int_Tables_number   1
_chemical_formula_structural   Nb6CdO16
_chemical_formula_sum   'Nb24 Cd4 O64'
_cell_volume   1245.32551424
_cell_formula_units_Z   4
loop_
 _symmetry_equiv_pos_site_id
 _symmetry_equiv_pos_as_xyz
  1  'x, y, z'
loop_
 _atom_site_type_symbol
 _atom_site_label
 _atom_site_symmetry_multiplicity
 _atom_site_fract_x
 _atom_site_fract_y
 _atom_site_fract_z
 _atom_site_occupancy
  Nb  Nb0  1  0.75235500  0.81116800  0.06063900  1
  Nb  Nb1  1  0.24764500  0.81116800  0.06063900  1
  Nb  Nb2  1  0.74407700  0.39693700  0.13277500  1
  Nb  Nb3  1  0.25592300  0.39693700  0.13277500  1
  Nb  Nb4  1  0.25014900  0.68894400  0.25071600  1
  Nb  Nb5  1  0.74985100  0.68894400  0.25071600  1
  Nb  Nb6  1  0.75250200  0.05205000  0.24819800  1
  Nb  Nb7  1  0.24749800  0.05205000  0.24819800  1
  Nb  Nb8  1  0.74635300  0.39892900  0.36551800  1
  Nb  Nb9  1  0.25364700  0.39892900  0.36551800  1
  Nb  Nb10  1  0.75276300  0.81383100  0.43999700  1
  Nb  Nb11  1  0.24723700  0.81383100  0.43999700  1
  Nb  Nb12  1  0.75235500  0.18883200  0.56063900  1
  Nb  Nb13  1  0.24764500  0.18883200  0.56063900  1
  Nb  Nb14  1  0.74407700  0.60306300  0.63277500  1
  Nb  Nb15  1  0.25592300  0.60306300  0.63277500  1
  Nb  Nb16  1  0.74985100  0.31105600  0.75071600  1
  Nb  Nb17  1  0.75250200  0.94795000  0.74819800  1
  Nb  Nb18  1  0.24749800  0.94795000  0.74819800  1
  Nb  Nb19  1  0.25014900  0.31105600  0.75071600  1
  Nb  Nb20  1  0.74635300  0.60107100  0.86551800  1
  Nb  Nb21  1  0.25364700  0.60107100  0.86551800  1
  Nb  Nb22  1  0.75276300  0.18616900  0.93999700  1
  Nb  Nb23  1  0.24723700  0.18616900  0.93999700  1
  Cd  Cd24  1  0.00000000  0.50318900  0.00064200  1
  Cd  Cd25  1  0.50000000  0.09576800  0.40961000  1
  Cd  Cd26  1  0.00000000  0.49681100  0.50064200  1
  Cd  Cd27  1  0.50000000  0.90423200  0.90961000  1
  O  O28  1  0.74844900  0.99188000  0.99324200  1
  O  O29  1  0.25155100  0.99188000  0.99324200  1
  O  O30  1  0.75431000  0.33818200  0.02083800  1
  O  O31  1  0.24569000  0.33818200  0.02083800  1
  O  O32  1  0.00000000  0.81877600  0.06202500  1
  O  O33  1  0.50000000  0.81857300  0.04805100  1
  O  O34  1  0.00000000  0.41507200  0.12234100  1
  O  O35  1  0.50000000  0.40433900  0.12757100  1
  O  O36  1  0.74739300  0.62153600  0.13310700  1
  O  O37  1  0.25260700  0.62153600  0.13310700  1
  O  O38  1  0.75027300  0.19768200  0.16841400  1
  O  O39  1  0.24972700  0.19768200  0.16841400  1
  O  O40  1  0.74468400  0.87725200  0.17442100  1
  O  O41  1  0.25531600  0.87725200  0.17442100  1
  O  O42  1  0.24647800  0.45427600  0.25056000  1
  O  O43  1  0.50000000  0.68858600  0.25055800  1
  O  O44  1  0.75352200  0.45427600  0.25056000  1
  O  O45  1  0.00000000  0.69089600  0.25012900  1
  O  O46  1  0.00000000  0.05331100  0.25246400  1
  O  O47  1  0.50000000  0.04601200  0.25785100  1
  O  O48  1  0.75378000  0.87368600  0.32563800  1
  O  O49  1  0.24622000  0.87368600  0.32563800  1
  O  O50  1  0.73666700  0.18981700  0.33836100  1
  O  O51  1  0.26333300  0.18981700  0.33836100  1
  O  O52  1  0.74520600  0.61965900  0.36857900  1
  O  O53  1  0.25479400  0.61965900  0.36857900  1
  O  O54  1  0.00000000  0.41170200  0.37489900  1
  O  O55  1  0.50000000  0.39625300  0.37562900  1
  O  O56  1  0.00000000  0.81467600  0.44132300  1
  O  O57  1  0.50000000  0.83637800  0.43720600  1
  O  O58  1  0.76266800  0.34084300  0.47956100  1
  O  O59  1  0.23733200  0.34084300  0.47956100  1
  O  O60  1  0.74844900  0.00812000  0.49324200  1
  O  O61  1  0.25155100  0.00812000  0.49324200  1
  O  O62  1  0.75431000  0.66181800  0.52083800  1
  O  O63  1  0.24569000  0.66181800  0.52083800  1
  O  O64  1  0.00000000  0.18122400  0.56202500  1
  O  O65  1  0.50000000  0.18142700  0.54805100  1
  O  O66  1  0.00000000  0.58492800  0.62234100  1
  O  O67  1  0.50000000  0.59566100  0.62757100  1
  O  O68  1  0.74739300  0.37846400  0.63310700  1
  O  O69  1  0.25260700  0.37846400  0.63310700  1
  O  O70  1  0.75027300  0.80231800  0.66841400  1
  O  O71  1  0.24972700  0.80231800  0.66841400  1
  O  O72  1  0.74468400  0.12274800  0.67442100  1
  O  O73  1  0.25531600  0.12274800  0.67442100  1
  O  O74  1  0.75352200  0.54572400  0.75056000  1
  O  O75  1  0.00000000  0.30910400  0.75012900  1
  O  O76  1  0.00000000  0.94668900  0.75246400  1
  O  O77  1  0.24647800  0.54572400  0.75056000  1
  O  O78  1  0.50000000  0.31141400  0.75055800  1
  O  O79  1  0.50000000  0.95398800  0.75785100  1
  O  O80  1  0.75378000  0.12631400  0.82563800  1
  O  O81  1  0.24622000  0.12631400  0.82563800  1
  O  O82  1  0.73666700  0.81018300  0.83836100  1
  O  O83  1  0.26333300  0.81018300  0.83836100  1
  O  O84  1  0.74520600  0.38034100  0.86857900  1
  O  O85  1  0.25479400  0.38034100  0.86857900  1
  O  O86  1  0.00000000  0.58829800  0.87489900  1
  O  O87  1  0.50000000  0.60374700  0.87562900  1
  O  O88  1  0.00000000  0.18532400  0.94132300  1
  O  O89  1  0.50000000  0.16362200  0.93720600  1
  O  O90  1  0.76266800  0.65915700  0.97956100  1
  O  O91  1  0.23733200  0.65915700  0.97956100  1
