# generated using pymatgen
data_AlZnH16N(OF)6
_symmetry_space_group_name_H-M   'P 1'
_cell_length_a   6.60110500
_cell_length_b   12.73459000
_cell_length_c   12.91154212
_cell_angle_alpha   84.56300492
_cell_angle_beta   90.00000000
_cell_angle_gamma   90.00000000
_symmetry_Int_Tables_number   1
_chemical_formula_structural   AlZnH16N(OF)6
_chemical_formula_sum   'Al4 Zn4 H64 N4 O24 F24'
_cell_volume   1080.49166688
_cell_formula_units_Z   4
loop_
 _symmetry_equiv_pos_site_id
 _symmetry_equiv_pos_as_xyz
  1  'x, y, z'
loop_
 _atom_site_type_symbol
 _atom_site_label
 _atom_site_symmetry_multiplicity
 _atom_site_fract_x
 _atom_site_fract_y
 _atom_site_fract_z
 _atom_site_occupancy
  Al  Al0  1  0.00000000  0.00000000  0.50000000  1
  Al  Al1  1  0.50000000  0.00000000  0.00000000  1
  Al  Al2  1  0.00000000  0.50000000  0.50000000  1
  Al  Al3  1  0.50000000  0.50000000  0.00000000  1
  Zn  Zn4  1  0.47234000  0.76905500  0.69408200  1
  Zn  Zn5  1  0.02766000  0.76905500  0.19408200  1
  Zn  Zn6  1  0.97234000  0.23094500  0.80591800  1
  Zn  Zn7  1  0.52766000  0.23094500  0.30591800  1
  H  H8  1  0.39618100  0.97301300  0.62932900  1
  H  H9  1  0.63556000  0.96208400  0.61945000  1
  H  H10  1  0.10381900  0.97301300  0.12932900  1
  H  H11  1  0.86444000  0.96208400  0.11945000  1
  H  H12  1  0.21627000  0.87179700  0.80800300  1
  H  H13  1  0.63060400  0.84451900  0.86440000  1
  H  H14  1  0.09587800  0.85456300  0.70238100  1
  H  H15  1  0.28373000  0.87179700  0.30800300  1
  H  H16  1  0.86939600  0.84451900  0.36440000  1
  H  H17  1  0.40412200  0.85456300  0.20238100  1
  H  H18  1  0.30573700  0.82835000  0.50571300  1
  H  H19  1  0.19426300  0.82835000  0.00571300  1
  H  H20  1  0.54260700  0.72839400  0.89734400  1
  H  H21  1  0.83361600  0.76844000  0.61175500  1
  H  H22  1  0.23522100  0.71121900  0.53295600  1
  H  H23  1  0.95739300  0.72839400  0.39734400  1
  H  H24  1  0.66638400  0.76844000  0.11175500  1
  H  H25  1  0.00122400  0.68334900  0.94239700  1
  H  H26  1  0.02395300  0.68826600  0.81377100  1
  H  H27  1  0.26477900  0.71121900  0.03295600  1
  H  H28  1  0.49877600  0.68334900  0.44239700  1
  H  H29  1  0.75384500  0.64803300  0.60905900  1
  H  H30  1  0.47604700  0.68826600  0.31377100  1
  H  H31  1  0.83984600  0.61192000  0.87370600  1
  H  H32  1  0.74615500  0.64803300  0.10905900  1
  H  H33  1  0.08753800  0.57636200  0.89001800  1
  H  H34  1  0.66015400  0.61192000  0.37370600  1
  H  H35  1  0.44814700  0.56964400  0.78183300  1
  H  H36  1  0.28090800  0.57114300  0.68997400  1
  H  H37  1  0.41246200  0.57636200  0.39001800  1
  H  H38  1  0.05185300  0.56964400  0.28183300  1
  H  H39  1  0.21909200  0.57114300  0.18997400  1
  H  H40  1  0.78090800  0.42885700  0.81002600  1
  H  H41  1  0.94814700  0.43035600  0.71816700  1
  H  H42  1  0.58753800  0.42363800  0.60998200  1
  H  H43  1  0.71909200  0.42885700  0.31002600  1
  H  H44  1  0.55185300  0.43035600  0.21816700  1
  H  H45  1  0.33984600  0.38808000  0.62629400  1
  H  H46  1  0.91246200  0.42363800  0.10998200  1
  H  H47  1  0.25384500  0.35196700  0.89094100  1
  H  H48  1  0.16015400  0.38808000  0.12629400  1
  H  H49  1  0.52395300  0.31173400  0.68622900  1
  H  H50  1  0.24615500  0.35196700  0.39094100  1
  H  H51  1  0.50122400  0.31665100  0.55760300  1
  H  H52  1  0.73522100  0.28878100  0.96704400  1
  H  H53  1  0.97604700  0.31173400  0.18622900  1
  H  H54  1  0.99877600  0.31665100  0.05760300  1
  H  H55  1  0.33361600  0.23156000  0.88824500  1
  H  H56  1  0.04260700  0.27160600  0.60265600  1
  H  H57  1  0.76477900  0.28878100  0.46704400  1
  H  H58  1  0.16638400  0.23156000  0.38824500  1
  H  H59  1  0.45739300  0.27160600  0.10265600  1
  H  H60  1  0.80573700  0.17165000  0.99428700  1
  H  H61  1  0.69426300  0.17165000  0.49428700  1
  H  H62  1  0.59587800  0.14543700  0.79761900  1
  H  H63  1  0.13060400  0.15548100  0.63560000  1
  H  H64  1  0.71627000  0.12820300  0.69199700  1
  H  H65  1  0.90412200  0.14543700  0.29761900  1
  H  H66  1  0.36939600  0.15548100  0.13560000  1
  H  H67  1  0.78373000  0.12820300  0.19199700  1
  H  H68  1  0.13556000  0.03791600  0.88055000  1
  H  H69  1  0.89618100  0.02698700  0.87067100  1
  H  H70  1  0.36444000  0.03791600  0.38055000  1
  H  H71  1  0.60381900  0.02698700  0.37067100  1
  N  N72  1  0.98624200  0.63909900  0.87917000  1
  N  N73  1  0.51375800  0.63909900  0.37917000  1
  N  N74  1  0.48624200  0.36090100  0.62083000  1
  N  N75  1  0.01375800  0.36090100  0.12083000  1
  O  O76  1  0.51510200  0.93067900  0.65563300  1
  O  O77  1  0.98489800  0.93067900  0.15563300  1
  O  O78  1  0.18262400  0.81990600  0.75860800  1
  O  O79  1  0.60888700  0.77331400  0.84021500  1
  O  O80  1  0.31737600  0.81990600  0.25860800  1
  O  O81  1  0.35291300  0.75919400  0.54001300  1
  O  O82  1  0.89111300  0.77331400  0.34021500  1
  O  O83  1  0.75174300  0.71124800  0.64846800  1
  O  O84  1  0.14708700  0.75919400  0.04001300  1
  O  O85  1  0.74825700  0.71124800  0.14846800  1
  O  O86  1  0.36205200  0.61519600  0.73341000  1
  O  O87  1  0.13794800  0.61519600  0.23341000  1
  O  O88  1  0.86205200  0.38480400  0.76659000  1
  O  O89  1  0.63794800  0.38480400  0.26659000  1
  O  O90  1  0.25174300  0.28875200  0.85153200  1
  O  O91  1  0.85291300  0.24080600  0.95998700  1
  O  O92  1  0.24825700  0.28875200  0.35153200  1
  O  O93  1  0.10888700  0.22668600  0.65978500  1
  O  O94  1  0.64708700  0.24080600  0.45998700  1
  O  O95  1  0.68262400  0.18009400  0.74139200  1
  O  O96  1  0.39111300  0.22668600  0.15978500  1
  O  O97  1  0.81737600  0.18009400  0.24139200  1
  O  O98  1  0.01510200  0.06932100  0.84436700  1
  O  O99  1  0.48489800  0.06932100  0.34436700  1
  F  F100  1  0.69123400  0.95582400  0.91123100  1
  F  F101  1  0.29718300  0.93177500  0.93213300  1
  F  F102  1  0.80876600  0.95582400  0.41123100  1
  F  F103  1  0.20281700  0.93177500  0.43213300  1
  F  F104  1  0.96097700  0.88104500  0.59004000  1
  F  F105  1  0.53902300  0.88104500  0.09004000  1
  F  F106  1  0.44161500  0.64083400  0.98653300  1
  F  F107  1  0.05838500  0.64083400  0.48653300  1
  F  F108  1  0.61816200  0.51329000  0.86840900  1
  F  F109  1  0.75475000  0.52876000  0.55758400  1
  F  F110  1  0.25475000  0.47124000  0.94241600  1
  F  F111  1  0.11816200  0.48671000  0.63159100  1
  F  F112  1  0.88183800  0.51329000  0.36840900  1
  F  F113  1  0.74525000  0.52876000  0.05758400  1
  F  F114  1  0.24525000  0.47124000  0.44241600  1
  F  F115  1  0.38183800  0.48671000  0.13159100  1
  F  F116  1  0.94161500  0.35916600  0.51346700  1
  F  F117  1  0.55838500  0.35916600  0.01346700  1
  F  F118  1  0.46097700  0.11895500  0.90996000  1
  F  F119  1  0.03902300  0.11895500  0.40996000  1
  F  F120  1  0.79718300  0.06822500  0.56786700  1
  F  F121  1  0.19123400  0.04417600  0.58876900  1
  F  F122  1  0.70281700  0.06822500  0.06786700  1
  F  F123  1  0.30876600  0.04417600  0.08876900  1
