# generated using pymatgen
data_K3SiF7
_symmetry_space_group_name_H-M   'P 1'
_cell_length_a   7.83247600
_cell_length_b   7.83247600
_cell_length_c   5.62874600
_cell_angle_alpha   90.00000000
_cell_angle_beta   90.00000000
_cell_angle_gamma   90.00000000
_symmetry_Int_Tables_number   1
_chemical_formula_structural   K3SiF7
_chemical_formula_sum   'K6 Si2 F14'
_cell_volume   345.31051004
_cell_formula_units_Z   2
loop_
 _symmetry_equiv_pos_site_id
 _symmetry_equiv_pos_as_xyz
  1  'x, y, z'
loop_
 _atom_site_type_symbol
 _atom_site_label
 _atom_site_symmetry_multiplicity
 _atom_site_fract_x
 _atom_site_fract_y
 _atom_site_fract_z
 _atom_site_occupancy
  K  K0  1  0.30512600  0.80512600  0.50000000  1
  K  K1  1  0.80512600  0.69487400  0.50000000  1
  K  K2  1  0.19487400  0.30512600  0.50000000  1
  K  K3  1  0.69487400  0.19487400  0.50000000  1
  K  K4  1  0.50000000  0.50000000  0.00000000  1
  K  K5  1  0.00000000  0.00000000  0.00000000  1
  Si  Si6  1  0.00000000  0.50000000  0.00000000  1
  Si  Si7  1  0.50000000  0.00000000  0.00000000  1
  F  F8  1  0.10862900  0.60862900  0.78202800  1
  F  F9  1  0.89137100  0.39137100  0.78202800  1
  F  F10  1  0.39137100  0.10862900  0.78202800  1
  F  F11  1  0.60862900  0.89137100  0.78202800  1
  F  F12  1  0.10862900  0.60862900  0.21797200  1
  F  F13  1  0.60862900  0.89137100  0.21797200  1
  F  F14  1  0.39137100  0.10862900  0.21797200  1
  F  F15  1  0.89137100  0.39137100  0.21797200  1
  F  F16  1  0.00000000  0.00000000  0.50000000  1
  F  F17  1  0.50000000  0.50000000  0.50000000  1
  F  F18  1  0.65487400  0.15487400  0.00000000  1
  F  F19  1  0.15487400  0.34512600  0.00000000  1
  F  F20  1  0.84512600  0.65487400  0.00000000  1
  F  F21  1  0.34512600  0.84512600  0.00000000  1
