# generated using pymatgen
data_Na2VBAsO7
_symmetry_space_group_name_H-M   'P 1'
_cell_length_a   5.60185168
_cell_length_b   18.74157057
_cell_length_c   6.58273318
_cell_angle_alpha   90.01503648
_cell_angle_beta   90.02150334
_cell_angle_gamma   86.32953522
_symmetry_Int_Tables_number   1
_chemical_formula_structural   Na2VBAsO7
_chemical_formula_sum   'Na8 V4 B4 As4 O28'
_cell_volume   689.68699420
_cell_formula_units_Z   4
loop_
 _symmetry_equiv_pos_site_id
 _symmetry_equiv_pos_as_xyz
  1  'x, y, z'
loop_
 _atom_site_type_symbol
 _atom_site_label
 _atom_site_symmetry_multiplicity
 _atom_site_fract_x
 _atom_site_fract_y
 _atom_site_fract_z
 _atom_site_occupancy
  Na  Na0  1  0.23630100  0.10124100  0.99121100  1
  Na  Na1  1  0.23614100  0.60138500  0.99167400  1
  Na  Na2  1  0.23602700  0.10123800  0.50879500  1
  Na  Na3  1  0.23638800  0.60112400  0.50903500  1
  Na  Na4  1  0.76408400  0.39877500  0.49124000  1
  Na  Na5  1  0.76365200  0.89886400  0.49103700  1
  Na  Na6  1  0.76376500  0.39876200  0.00879000  1
  Na  Na7  1  0.76372600  0.89862400  0.00836800  1
  V  V8  1  0.78185400  0.66533700  0.74990800  1
  V  V9  1  0.21807700  0.83464700  0.24996800  1
  V  V10  1  0.78196000  0.16543000  0.74984000  1
  V  V11  1  0.21809700  0.33456800  0.25010500  1
  B  B12  1  0.72357300  0.03938500  0.74999900  1
  B  B13  1  0.72327300  0.53931700  0.75005400  1
  B  B14  1  0.27649000  0.46061600  0.25001000  1
  B  B15  1  0.27654800  0.96069200  0.24996400  1
  As  As16  1  0.72214100  0.22111100  0.24987500  1
  As  As17  1  0.72169500  0.72116000  0.24964600  1
  As  As18  1  0.27789100  0.27888000  0.75007200  1
  As  As19  1  0.27832500  0.77884400  0.75028300  1
  O  O20  1  0.31094000  0.02898400  0.24998400  1
  O  O21  1  0.31082900  0.52892000  0.25002500  1
  O  O22  1  0.68891800  0.47102700  0.75004800  1
  O  O23  1  0.68921000  0.97108600  0.75001200  1
  O  O24  1  0.94623500  0.07317900  0.75000400  1
  O  O25  1  0.94611300  0.57310100  0.74983300  1
  O  O26  1  0.05383100  0.42681900  0.24998300  1
  O  O27  1  0.05382400  0.92689300  0.25025200  1
  O  O28  1  0.54272200  0.09804600  0.74992300  1
  O  O29  1  0.54264800  0.59800300  0.75031400  1
  O  O30  1  0.45734800  0.40195400  0.25007300  1
  O  O31  1  0.45732900  0.90201100  0.24963800  1
  O  O32  1  0.12764500  0.20262900  0.75000600  1
  O  O33  1  0.12801800  0.70260300  0.74996100  1
  O  O34  1  0.87238700  0.29736300  0.24994600  1
  O  O35  1  0.87207500  0.79738600  0.25002000  1
  O  O36  1  0.41615900  0.23839500  0.24987100  1
  O  O37  1  0.41569700  0.73837300  0.24908800  1
  O  O38  1  0.58386600  0.26159800  0.75010300  1
  O  O39  1  0.58435000  0.76165000  0.75110000  1
  O  O40  1  0.80596000  0.16778100  0.04483000  1
  O  O41  1  0.80596800  0.66769600  0.04502400  1
  O  O42  1  0.80585800  0.16784300  0.45508900  1
  O  O43  1  0.80482400  0.66796500  0.45528300  1
  O  O44  1  0.19416000  0.33215000  0.54487400  1
  O  O45  1  0.19517200  0.83206500  0.54474400  1
  O  O46  1  0.19407700  0.33220800  0.95513400  1
  O  O47  1  0.19383200  0.83227300  0.95496400  1
