# generated using pymatgen
data_K2CoPCO7
_symmetry_space_group_name_H-M   'P 1'
_cell_length_a   6.96193300
_cell_length_b   5.53644600
_cell_length_c   9.50697599
_cell_angle_alpha   89.40304968
_cell_angle_beta   90.00000000
_cell_angle_gamma   90.00000000
_symmetry_Int_Tables_number   1
_chemical_formula_structural   K2CoPCO7
_chemical_formula_sum   'K4 Co2 P2 C2 O14'
_cell_volume   366.42047465
_cell_formula_units_Z   2
loop_
 _symmetry_equiv_pos_site_id
 _symmetry_equiv_pos_as_xyz
  1  'x, y, z'
loop_
 _atom_site_type_symbol
 _atom_site_label
 _atom_site_symmetry_multiplicity
 _atom_site_fract_x
 _atom_site_fract_y
 _atom_site_fract_z
 _atom_site_occupancy
  K  K0  1  0.47944800  0.24336800  0.75472300  1
  K  K1  1  0.02055200  0.24336800  0.75472300  1
  K  K2  1  0.52055200  0.75663200  0.24527700  1
  K  K3  1  0.97944800  0.75663200  0.24527700  1
  Co  Co4  1  0.75000000  0.76942900  0.63670100  1
  Co  Co5  1  0.25000000  0.23057100  0.36329900  1
  P  P6  1  0.25000000  0.72218800  0.56781200  1
  P  P7  1  0.75000000  0.27781200  0.43218800  1
  C  C8  1  0.75000000  0.72767300  0.90073600  1
  C  C9  1  0.25000000  0.27232700  0.09926400  1
  O  O10  1  0.25000000  0.28250700  0.96749000  1
  O  O11  1  0.75000000  0.93218700  0.82823300  1
  O  O12  1  0.75000000  0.54007900  0.81827400  1
  O  O13  1  0.06676000  0.75565700  0.65663200  1
  O  O14  1  0.43324000  0.75565700  0.65663200  1
  O  O15  1  0.75000000  0.10842800  0.56367800  1
  O  O16  1  0.25000000  0.45146200  0.51219400  1
  O  O17  1  0.75000000  0.54853800  0.48780600  1
  O  O18  1  0.25000000  0.89157200  0.43632200  1
  O  O19  1  0.56676000  0.24434300  0.34336800  1
  O  O20  1  0.93324000  0.24434300  0.34336800  1
  O  O21  1  0.25000000  0.45992100  0.18172600  1
  O  O22  1  0.25000000  0.06781300  0.17176700  1
  O  O23  1  0.75000000  0.71749300  0.03251000  1
