# generated using pymatgen
data_MgV3O7
_symmetry_space_group_name_H-M   'P 1'
_cell_length_a   5.33293400
_cell_length_b   10.23090600
_cell_length_c   10.23426400
_cell_angle_alpha   90.00000000
_cell_angle_beta   90.00000000
_cell_angle_gamma   90.00000000
_symmetry_Int_Tables_number   1
_chemical_formula_structural   MgV3O7
_chemical_formula_sum   'Mg4 V12 O28'
_cell_volume   558.38908329
_cell_formula_units_Z   4
loop_
 _symmetry_equiv_pos_site_id
 _symmetry_equiv_pos_as_xyz
  1  'x, y, z'
loop_
 _atom_site_type_symbol
 _atom_site_label
 _atom_site_symmetry_multiplicity
 _atom_site_fract_x
 _atom_site_fract_y
 _atom_site_fract_z
 _atom_site_occupancy
  Mg  Mg0  1  0.84534000  0.07809200  0.25000000  1
  Mg  Mg1  1  0.34534000  0.42190800  0.75000000  1
  Mg  Mg2  1  0.15466000  0.92190800  0.75000000  1
  Mg  Mg3  1  0.65466000  0.57809200  0.25000000  1
  V  V4  1  0.20277400  0.68277800  0.97267500  1
  V  V5  1  0.70277400  0.81722200  0.02732500  1
  V  V6  1  0.79722600  0.31722200  0.47267500  1
  V  V7  1  0.29722600  0.18277800  0.52732500  1
  V  V8  1  0.19193200  0.78229400  0.25000000  1
  V  V9  1  0.69193200  0.71770600  0.75000000  1
  V  V10  1  0.80806800  0.21770600  0.75000000  1
  V  V11  1  0.30806800  0.28229400  0.25000000  1
  V  V12  1  0.70277400  0.81722200  0.47267500  1
  V  V13  1  0.20277400  0.68277800  0.52732500  1
  V  V14  1  0.29722600  0.18277800  0.97267500  1
  V  V15  1  0.79722600  0.31722200  0.02732500  1
  O  O16  1  0.55716800  0.28786000  0.87914800  1
  O  O17  1  0.05716800  0.21214000  0.12085200  1
  O  O18  1  0.44283200  0.71214000  0.37914800  1
  O  O19  1  0.94283200  0.78786000  0.62085200  1
  O  O20  1  0.44283200  0.71214000  0.12085200  1
  O  O21  1  0.94283200  0.78786000  0.87914800  1
  O  O22  1  0.55716800  0.28786000  0.62085200  1
  O  O23  1  0.05716800  0.21214000  0.37914800  1
  O  O24  1  0.04120800  0.28733900  0.88160800  1
  O  O25  1  0.54120800  0.21266100  0.11839200  1
  O  O26  1  0.95879200  0.71266100  0.38160800  1
  O  O27  1  0.45879200  0.78733900  0.61839200  1
  O  O28  1  0.95879200  0.71266100  0.11839200  1
  O  O29  1  0.45879200  0.78733900  0.88160800  1
  O  O30  1  0.04120800  0.28733900  0.61839200  1
  O  O31  1  0.54120800  0.21266100  0.38160800  1
  O  O32  1  0.33373100  0.44438600  0.25000000  1
  O  O33  1  0.83373100  0.05561400  0.75000000  1
  O  O34  1  0.66626900  0.55561400  0.75000000  1
  O  O35  1  0.16626900  0.94438600  0.25000000  1
  O  O36  1  0.27857900  0.03569800  0.59569300  1
  O  O37  1  0.77857900  0.46430200  0.40430700  1
  O  O38  1  0.72142100  0.96430200  0.09569300  1
  O  O39  1  0.22142100  0.53569800  0.90430700  1
  O  O40  1  0.72142100  0.96430200  0.40430700  1
  O  O41  1  0.22142100  0.53569800  0.59569300  1
  O  O42  1  0.27857900  0.03569800  0.90430700  1
  O  O43  1  0.77857900  0.46430200  0.09569300  1
