# generated using pymatgen
data_Na6Sn2O7
_symmetry_space_group_name_H-M   'P 1'
_cell_length_a   6.24318600
_cell_length_b   9.35190700
_cell_length_c   18.47964737
_cell_angle_alpha   63.67895797
_cell_angle_beta   90.00000000
_cell_angle_gamma   90.00000000
_symmetry_Int_Tables_number   1
_chemical_formula_structural   Na6Sn2O7
_chemical_formula_sum   'Na24 Sn8 O28'
_cell_volume   967.08576124
_cell_formula_units_Z   4
loop_
 _symmetry_equiv_pos_site_id
 _symmetry_equiv_pos_as_xyz
  1  'x, y, z'
loop_
 _atom_site_type_symbol
 _atom_site_label
 _atom_site_symmetry_multiplicity
 _atom_site_fract_x
 _atom_site_fract_y
 _atom_site_fract_z
 _atom_site_occupancy
  Na  Na0  1  0.36991100  0.65007500  0.38444300  1
  Na  Na1  1  0.69754300  0.00750200  0.04231100  1
  Na  Na2  1  0.66560400  0.87331700  0.25664900  1
  Na  Na3  1  0.27902700  0.40275900  0.80145100  1
  Na  Na4  1  0.01484700  0.82169900  0.37641600  1
  Na  Na5  1  0.64716400  0.74171000  0.48566600  1
  Na  Na6  1  0.77902700  0.59724100  0.69854900  1
  Na  Na7  1  0.14716400  0.25829000  0.01433400  1
  Na  Na8  1  0.51484700  0.17830100  0.12358400  1
  Na  Na9  1  0.16560400  0.12668300  0.24335100  1
  Na  Na10  1  0.19754300  0.99249800  0.45768900  1
  Na  Na11  1  0.86991100  0.34992500  0.11555700  1
  Na  Na12  1  0.13008900  0.65007500  0.88444300  1
  Na  Na13  1  0.80245700  0.00750200  0.54231100  1
  Na  Na14  1  0.83439600  0.87331700  0.75664900  1
  Na  Na15  1  0.48515300  0.82169900  0.87641600  1
  Na  Na16  1  0.85283600  0.74171000  0.98566600  1
  Na  Na17  1  0.22097300  0.40275900  0.30145100  1
  Na  Na18  1  0.35283600  0.25829000  0.51433400  1
  Na  Na19  1  0.98515300  0.17830100  0.62358400  1
  Na  Na20  1  0.72097300  0.59724100  0.19854900  1
  Na  Na21  1  0.33439600  0.12668300  0.74335100  1
  Na  Na22  1  0.30245700  0.99249800  0.95768900  1
  Na  Na23  1  0.63008900  0.34992500  0.61555700  1
  Sn  Sn24  1  0.17649800  0.84185300  0.16862700  1
  Sn  Sn25  1  0.15192200  0.56338000  0.58600200  1
  Sn  Sn26  1  0.65192200  0.43662000  0.91399800  1
  Sn  Sn27  1  0.32350200  0.84185300  0.66862700  1
  Sn  Sn28  1  0.67649800  0.15814700  0.33137300  1
  Sn  Sn29  1  0.34807800  0.56338000  0.08600200  1
  Sn  Sn30  1  0.84807800  0.43662000  0.41399800  1
  Sn  Sn31  1  0.82350200  0.15814700  0.83137300  1
  O  O32  1  0.86294800  0.84206000  0.15916200  1
  O  O33  1  0.73304800  0.65426300  0.38062800  1
  O  O34  1  0.32591900  0.01435300  0.07649500  1
  O  O35  1  0.83828900  0.55920100  0.58825700  1
  O  O36  1  0.27304300  0.86880300  0.26443000  1
  O  O37  1  0.71376700  0.37510600  0.82057000  1
  O  O38  1  0.27527800  0.72866600  0.48505800  1
  O  O39  1  0.21376700  0.62489400  0.67943000  1
  O  O40  1  0.33828900  0.44079900  0.91174300  1
  O  O41  1  0.77527800  0.27133400  0.01494200  1
  O  O42  1  0.77304300  0.13119700  0.23557000  1
  O  O43  1  0.82591900  0.98564700  0.42350500  1
  O  O44  1  0.63705200  0.84206000  0.65916200  1
  O  O45  1  0.23304800  0.34573700  0.11937200  1
  O  O46  1  0.76695200  0.65426300  0.88062800  1
  O  O47  1  0.36294800  0.15794000  0.34083800  1
  O  O48  1  0.17408100  0.01435300  0.57649500  1
  O  O49  1  0.22695700  0.86880300  0.76443000  1
  O  O50  1  0.22472200  0.72866600  0.98505800  1
  O  O51  1  0.66171100  0.55920100  0.08825700  1
  O  O52  1  0.78623300  0.37510600  0.32057000  1
  O  O53  1  0.72472200  0.27133400  0.51494200  1
  O  O54  1  0.28623300  0.62489400  0.17943000  1
  O  O55  1  0.72695700  0.13119700  0.73557000  1
  O  O56  1  0.16171100  0.44079900  0.41174300  1
  O  O57  1  0.67408100  0.98564700  0.92350500  1
  O  O58  1  0.26695200  0.34573700  0.61937200  1
  O  O59  1  0.13705200  0.15794000  0.84083800  1
