# generated using pymatgen
data_Co5NiO12
_symmetry_space_group_name_H-M   'P 1'
_cell_length_a   4.89660383
_cell_length_b   4.90154465
_cell_length_c   9.61798881
_cell_angle_alpha   89.97517773
_cell_angle_beta   89.95031583
_cell_angle_gamma   60.03334673
_symmetry_Int_Tables_number   1
_chemical_formula_structural   Co5NiO12
_chemical_formula_sum   'Co5 Ni1 O12'
_cell_volume   199.98089238
_cell_formula_units_Z   1
loop_
 _symmetry_equiv_pos_site_id
 _symmetry_equiv_pos_as_xyz
  1  'x, y, z'
loop_
 _atom_site_type_symbol
 _atom_site_label
 _atom_site_symmetry_multiplicity
 _atom_site_fract_x
 _atom_site_fract_y
 _atom_site_fract_z
 _atom_site_occupancy
  Co  Co0  1  0.16666100  0.66667800  0.50000000  1
  Co  Co1  1  0.66666100  0.66667700  0.00000000  1
  Co  Co2  1  0.33333900  0.33332300  0.00000000  1
  Co  Co3  1  0.83333900  0.33332200  0.50000000  1
  Co  Co4  1  0.50000000  0.00000000  0.50000000  1
  Ni  Ni5  1  0.00000000  0.00000000  0.00000000  1
  O  O6  1  0.99982400  0.66769100  0.09817600  1
  O  O7  1  0.33248600  0.66769100  0.90182400  1
  O  O8  1  0.16728800  0.33293000  0.40185100  1
  O  O9  1  0.50021800  0.66707000  0.40185100  1
  O  O10  1  0.49978200  0.33293000  0.59814900  1
  O  O11  1  0.16683400  0.00000000  0.59815200  1
  O  O12  1  0.83271200  0.66707000  0.59814900  1
  O  O13  1  0.66751400  0.33230900  0.09817600  1
  O  O14  1  0.33233800  0.00000000  0.09822500  1
  O  O15  1  0.00017600  0.33230900  0.90182400  1
  O  O16  1  0.66766200  0.00000000  0.90177500  1
  O  O17  1  0.83316600  0.00000000  0.40184800  1
