# generated using pymatgen
data_ScMn2O5
_symmetry_space_group_name_H-M   'P 1'
_cell_length_a   5.72056400
_cell_length_b   7.10703800
_cell_length_c   8.30825700
_cell_angle_alpha   90.00000000
_cell_angle_beta   90.00000000
_cell_angle_gamma   90.00000000
_symmetry_Int_Tables_number   1
_chemical_formula_structural   ScMn2O5
_chemical_formula_sum   'Sc4 Mn8 O20'
_cell_volume   337.78270434
_cell_formula_units_Z   4
loop_
 _symmetry_equiv_pos_site_id
 _symmetry_equiv_pos_as_xyz
  1  'x, y, z'
loop_
 _atom_site_type_symbol
 _atom_site_label
 _atom_site_symmetry_multiplicity
 _atom_site_fract_x
 _atom_site_fract_y
 _atom_site_fract_z
 _atom_site_occupancy
  Sc  Sc0  1  0.00000000  0.14049400  0.16650600  1
  Sc  Sc1  1  0.00000000  0.35950600  0.66650600  1
  Sc  Sc2  1  0.00000000  0.64049400  0.33349400  1
  Sc  Sc3  1  0.00000000  0.85950600  0.83349400  1
  Mn  Mn4  1  0.25052500  0.00000000  0.50000000  1
  Mn  Mn5  1  0.74947500  0.00000000  0.50000000  1
  Mn  Mn6  1  0.50000000  0.08619800  0.84516500  1
  Mn  Mn7  1  0.50000000  0.41380200  0.34516500  1
  Mn  Mn8  1  0.25052500  0.50000000  0.00000000  1
  Mn  Mn9  1  0.74947500  0.50000000  0.00000000  1
  Mn  Mn10  1  0.50000000  0.58619800  0.65483500  1
  Mn  Mn11  1  0.50000000  0.91380200  0.15483500  1
  O  O12  1  0.26053000  0.00000000  0.00000000  1
  O  O13  1  0.73947000  0.00000000  0.00000000  1
  O  O14  1  0.23340100  0.12135800  0.70500000  1
  O  O15  1  0.76659900  0.12135800  0.70500000  1
  O  O16  1  0.50000000  0.14782900  0.42195600  1
  O  O17  1  0.00000000  0.16672200  0.43331600  1
  O  O18  1  0.00000000  0.33327800  0.93331600  1
  O  O19  1  0.50000000  0.35217100  0.92195600  1
  O  O20  1  0.23340100  0.37864200  0.20500000  1
  O  O21  1  0.76659900  0.37864200  0.20500000  1
  O  O22  1  0.26053000  0.50000000  0.50000000  1
  O  O23  1  0.73947000  0.50000000  0.50000000  1
  O  O24  1  0.23340100  0.62135800  0.79500000  1
  O  O25  1  0.76659900  0.62135800  0.79500000  1
  O  O26  1  0.50000000  0.64782900  0.07804400  1
  O  O27  1  0.00000000  0.66672200  0.06668400  1
  O  O28  1  0.00000000  0.83327800  0.56668400  1
  O  O29  1  0.50000000  0.85217100  0.57804400  1
  O  O30  1  0.23340100  0.87864200  0.29500000  1
  O  O31  1  0.76659900  0.87864200  0.29500000  1
