# generated using pymatgen
data_Na3Cr(BO3)2
_symmetry_space_group_name_H-M   'P 1'
_cell_length_a   9.21372500
_cell_length_b   5.52375500
_cell_length_c   11.41931396
_cell_angle_alpha   65.50554872
_cell_angle_beta   90.00000000
_cell_angle_gamma   90.00000000
_symmetry_Int_Tables_number   1
_chemical_formula_structural   Na3Cr(BO3)2
_chemical_formula_sum   'Na12 Cr4 B8 O24'
_cell_volume   528.87341941
_cell_formula_units_Z   4
loop_
 _symmetry_equiv_pos_site_id
 _symmetry_equiv_pos_as_xyz
  1  'x, y, z'
loop_
 _atom_site_type_symbol
 _atom_site_label
 _atom_site_symmetry_multiplicity
 _atom_site_fract_x
 _atom_site_fract_y
 _atom_site_fract_z
 _atom_site_occupancy
  Na  Na0  1  0.93899200  0.50651800  0.36394500  1
  Na  Na1  1  0.63061400  0.44550700  0.37511300  1
  Na  Na2  1  0.95571100  0.94297100  0.87660700  1
  Na  Na3  1  0.13061400  0.55449300  0.12488700  1
  Na  Na4  1  0.45571100  0.05702900  0.62339300  1
  Na  Na5  1  0.43899200  0.49348200  0.13605500  1
  Na  Na6  1  0.56100800  0.50651800  0.86394500  1
  Na  Na7  1  0.54428900  0.94297100  0.37660700  1
  Na  Na8  1  0.86938600  0.44550700  0.87511300  1
  Na  Na9  1  0.04428900  0.05702900  0.12339300  1
  Na  Na10  1  0.36938600  0.55449300  0.62488700  1
  Na  Na11  1  0.06100800  0.49348200  0.63605500  1
  Cr  Cr12  1  0.28540300  0.02828200  0.87708800  1
  Cr  Cr13  1  0.78540300  0.97171800  0.62291200  1
  Cr  Cr14  1  0.21459700  0.02828200  0.37708800  1
  Cr  Cr15  1  0.71459700  0.97171800  0.12291200  1
  B  B16  1  0.29671400  0.45740500  0.38342000  1
  B  B17  1  0.63511600  0.96967200  0.86418500  1
  B  B18  1  0.79671400  0.54259500  0.11658000  1
  B  B19  1  0.13511600  0.03032800  0.63581500  1
  B  B20  1  0.86488400  0.96967200  0.36418500  1
  B  B21  1  0.20328600  0.45740500  0.88342000  1
  B  B22  1  0.36488400  0.03032800  0.13581500  1
  B  B23  1  0.70328600  0.54259500  0.61658000  1
  O  O24  1  0.31160200  0.88396500  0.07125300  1
  O  O25  1  0.67133300  0.32327900  0.59356800  1
  O  O26  1  0.89881600  0.74156100  0.10399100  1
  O  O27  1  0.23620100  0.15604900  0.68516000  1
  O  O28  1  0.66167600  0.59805700  0.15281100  1
  O  O29  1  0.16167600  0.40194300  0.34718900  1
  O  O30  1  0.98952300  0.07024100  0.65255300  1
  O  O31  1  0.48952300  0.92975900  0.84744700  1
  O  O32  1  0.73620100  0.84395100  0.81484000  1
  O  O33  1  0.39881600  0.25843900  0.39600900  1
  O  O34  1  0.81160200  0.11603500  0.42874700  1
  O  O35  1  0.17133300  0.67672100  0.90643200  1
  O  O36  1  0.82866700  0.32327900  0.09356800  1
  O  O37  1  0.18839800  0.88396500  0.57125300  1
  O  O38  1  0.60118400  0.74156100  0.60399100  1
  O  O39  1  0.26379900  0.15604900  0.18516000  1
  O  O40  1  0.51047700  0.07024100  0.15255300  1
  O  O41  1  0.01047700  0.92975900  0.34744700  1
  O  O42  1  0.83832400  0.59805700  0.65281100  1
  O  O43  1  0.33832400  0.40194300  0.84718900  1
  O  O44  1  0.76379900  0.84395100  0.31484000  1
  O  O45  1  0.10118400  0.25843900  0.89600900  1
  O  O46  1  0.32866700  0.67672100  0.40643200  1
  O  O47  1  0.68839800  0.11603500  0.92874700  1
