# generated using pymatgen
data_Na3V(BO3)2
_symmetry_space_group_name_H-M   'P 1'
_cell_length_a   9.55649700
_cell_length_b   5.54207200
_cell_length_c   11.73652430
_cell_angle_alpha   65.32979264
_cell_angle_beta   90.00000000
_cell_angle_gamma   90.00000000
_symmetry_Int_Tables_number   1
_chemical_formula_structural   Na3V(BO3)2
_chemical_formula_sum   'Na12 V4 B8 O24'
_cell_volume   564.86287342
_cell_formula_units_Z   4
loop_
 _symmetry_equiv_pos_site_id
 _symmetry_equiv_pos_as_xyz
  1  'x, y, z'
loop_
 _atom_site_type_symbol
 _atom_site_label
 _atom_site_symmetry_multiplicity
 _atom_site_fract_x
 _atom_site_fract_y
 _atom_site_fract_z
 _atom_site_occupancy
  Na  Na0  1  0.96312800  0.51269500  0.33970100  1
  Na  Na1  1  0.65852800  0.45605700  0.37652700  1
  Na  Na2  1  0.98164100  0.92390500  0.88631000  1
  Na  Na3  1  0.15852800  0.54394300  0.12347300  1
  Na  Na4  1  0.48164100  0.07609500  0.61369000  1
  Na  Na5  1  0.46312800  0.48730500  0.16029900  1
  Na  Na6  1  0.53687200  0.51269500  0.83970100  1
  Na  Na7  1  0.51835900  0.92390500  0.38631000  1
  Na  Na8  1  0.84147200  0.45605700  0.87652700  1
  Na  Na9  1  0.01835900  0.07609500  0.11369000  1
  Na  Na10  1  0.34147200  0.54394300  0.62347300  1
  Na  Na11  1  0.03687200  0.48730500  0.66029900  1
  V  V12  1  0.31689300  0.98645800  0.87712200  1
  V  V13  1  0.81689300  0.01354200  0.62287800  1
  V  V14  1  0.18310700  0.98645800  0.37712200  1
  V  V15  1  0.68310700  0.01354200  0.12287800  1
  B  B16  1  0.30944000  0.45192000  0.38172300  1
  B  B17  1  0.64906400  0.97895900  0.86536800  1
  B  B18  1  0.80944000  0.54808000  0.11827700  1
  B  B19  1  0.14906400  0.02104100  0.63463200  1
  B  B20  1  0.85093600  0.97895900  0.36536800  1
  B  B21  1  0.19056000  0.45192000  0.88172300  1
  B  B22  1  0.35093600  0.02104100  0.13463200  1
  B  B23  1  0.69056000  0.54808000  0.61827700  1
  O  O24  1  0.32724800  0.86979500  0.06771700  1
  O  O25  1  0.69649400  0.32487400  0.59188100  1
  O  O26  1  0.93172100  0.68440300  0.10947700  1
  O  O27  1  0.25699100  0.11754100  0.68171800  1
  O  O28  1  0.01013400  0.07442100  0.65935900  1
  O  O29  1  0.68676100  0.63291500  0.15554900  1
  O  O30  1  0.18676100  0.36708500  0.34445100  1
  O  O31  1  0.51013400  0.92557900  0.84064100  1
  O  O32  1  0.75699100  0.88245900  0.81828200  1
  O  O33  1  0.43172100  0.31559700  0.39052300  1
  O  O34  1  0.82724800  0.13020500  0.43228300  1
  O  O35  1  0.19649400  0.67512600  0.90811900  1
  O  O36  1  0.80350600  0.32487400  0.09188100  1
  O  O37  1  0.17275200  0.86979500  0.56771700  1
  O  O38  1  0.56827900  0.68440300  0.60947700  1
  O  O39  1  0.24300900  0.11754100  0.18171800  1
  O  O40  1  0.48986600  0.07442100  0.15935900  1
  O  O41  1  0.81323900  0.63291500  0.65554900  1
  O  O42  1  0.31323900  0.36708500  0.84445100  1
  O  O43  1  0.98986600  0.92557900  0.34064100  1
  O  O44  1  0.74300900  0.88245900  0.31828200  1
  O  O45  1  0.06827900  0.31559700  0.89052300  1
  O  O46  1  0.30350600  0.67512600  0.40811900  1
  O  O47  1  0.67275200  0.13020500  0.93228300  1
