# generated using pymatgen
data_Na3Mn(BO3)2
_symmetry_space_group_name_H-M   'P 1'
_cell_length_a   9.68658400
_cell_length_b   5.57957300
_cell_length_c   11.29769443
_cell_angle_alpha   65.56373947
_cell_angle_beta   90.00000000
_cell_angle_gamma   90.00000000
_symmetry_Int_Tables_number   1
_chemical_formula_structural   Na3Mn(BO3)2
_chemical_formula_sum   'Na12 Mn4 B8 O24'
_cell_volume   555.90963270
_cell_formula_units_Z   4
loop_
 _symmetry_equiv_pos_site_id
 _symmetry_equiv_pos_as_xyz
  1  'x, y, z'
loop_
 _atom_site_type_symbol
 _atom_site_label
 _atom_site_symmetry_multiplicity
 _atom_site_fract_x
 _atom_site_fract_y
 _atom_site_fract_z
 _atom_site_occupancy
  Na  Na0  1  0.96833300  0.48458900  0.35755700  1
  Na  Na1  1  0.65568400  0.45939400  0.37390600  1
  Na  Na2  1  0.98738500  0.93227700  0.88123500  1
  Na  Na3  1  0.15568400  0.54060600  0.12609400  1
  Na  Na4  1  0.46833300  0.51541100  0.14244300  1
  Na  Na5  1  0.48738500  0.06772300  0.61876500  1
  Na  Na6  1  0.51261500  0.93227700  0.38123500  1
  Na  Na7  1  0.53166700  0.48458900  0.85755700  1
  Na  Na8  1  0.84431600  0.45939400  0.87390600  1
  Na  Na9  1  0.01261500  0.06772300  0.11876500  1
  Na  Na10  1  0.34431600  0.54060600  0.62609400  1
  Na  Na11  1  0.03166700  0.51541100  0.64244300  1
  Mn  Mn12  1  0.30474500  0.98900000  0.87433000  1
  Mn  Mn13  1  0.80474500  0.01100000  0.62567000  1
  Mn  Mn14  1  0.19525500  0.98900000  0.37433000  1
  Mn  Mn15  1  0.69525500  0.01100000  0.12567000  1
  B  B16  1  0.31036100  0.44811500  0.38165300  1
  B  B17  1  0.65207100  0.97279400  0.86771800  1
  B  B18  1  0.81036100  0.55188500  0.11834700  1
  B  B19  1  0.15207100  0.02720600  0.63228200  1
  B  B20  1  0.84792900  0.97279400  0.36771800  1
  B  B21  1  0.18963900  0.44811500  0.88165300  1
  B  B22  1  0.34792900  0.02720600  0.13228200  1
  B  B23  1  0.68963900  0.55188500  0.61834700  1
  O  O24  1  0.31542600  0.87341400  0.06439000  1
  O  O25  1  0.69441000  0.32781300  0.59316500  1
  O  O26  1  0.93269700  0.67777000  0.11341700  1
  O  O27  1  0.68613300  0.64347400  0.14848700  1
  O  O28  1  0.26470200  0.10731600  0.68698300  1
  O  O29  1  0.01951400  0.09478400  0.64839700  1
  O  O30  1  0.18613300  0.35652600  0.35151300  1
  O  O31  1  0.43269700  0.32223000  0.38658300  1
  O  O32  1  0.51951400  0.90521600  0.85160300  1
  O  O33  1  0.76470200  0.89268400  0.81301700  1
  O  O34  1  0.81542600  0.12658600  0.43561000  1
  O  O35  1  0.19441000  0.67218700  0.90683500  1
  O  O36  1  0.80559000  0.32781300  0.09316500  1
  O  O37  1  0.18457400  0.87341400  0.56439000  1
  O  O38  1  0.23529800  0.10731600  0.18698300  1
  O  O39  1  0.48048600  0.09478400  0.14839700  1
  O  O40  1  0.56730300  0.67777000  0.61341700  1
  O  O41  1  0.81386700  0.64347400  0.64848700  1
  O  O42  1  0.98048600  0.90521600  0.35160300  1
  O  O43  1  0.73529800  0.89268400  0.31301700  1
  O  O44  1  0.31386700  0.35652600  0.85151300  1
  O  O45  1  0.06730300  0.32223000  0.88658300  1
  O  O46  1  0.30559000  0.67218700  0.40683500  1
  O  O47  1  0.68457400  0.12658600  0.93561000  1
