# generated using pymatgen
data_Na2Ti2O5
_symmetry_space_group_name_H-M   'P 1'
_cell_length_a   5.66041300
_cell_length_b   9.05360100
_cell_length_c   10.65487500
_cell_angle_alpha   90.00000000
_cell_angle_beta   90.00000000
_cell_angle_gamma   90.00000000
_symmetry_Int_Tables_number   1
_chemical_formula_structural   Na2Ti2O5
_chemical_formula_sum   'Na8 Ti8 O20'
_cell_volume   546.03166620
_cell_formula_units_Z   4
loop_
 _symmetry_equiv_pos_site_id
 _symmetry_equiv_pos_as_xyz
  1  'x, y, z'
loop_
 _atom_site_type_symbol
 _atom_site_label
 _atom_site_symmetry_multiplicity
 _atom_site_fract_x
 _atom_site_fract_y
 _atom_site_fract_z
 _atom_site_occupancy
  Na  Na0  1  0.93217300  0.02281400  0.48917900  1
  Na  Na1  1  0.93217300  0.52281400  0.01082100  1
  Na  Na2  1  0.91240900  0.74779900  0.73361900  1
  Na  Na3  1  0.91240900  0.24779900  0.76638100  1
  Na  Na4  1  0.08759100  0.24779900  0.26638100  1
  Na  Na5  1  0.08759100  0.74779900  0.23361900  1
  Na  Na6  1  0.06782700  0.52281400  0.51082100  1
  Na  Na7  1  0.06782700  0.02281400  0.98917900  1
  Ti  Ti8  1  0.62597600  0.94647000  0.20257700  1
  Ti  Ti9  1  0.62597600  0.44647000  0.29742300  1
  Ti  Ti10  1  0.52960100  0.75056600  0.46674300  1
  Ti  Ti11  1  0.52960100  0.25056600  0.03325700  1
  Ti  Ti12  1  0.47039900  0.75056600  0.96674300  1
  Ti  Ti13  1  0.47039900  0.25056600  0.53325700  1
  Ti  Ti14  1  0.37402400  0.94647000  0.70257700  1
  Ti  Ti15  1  0.37402400  0.44647000  0.79742300  1
  O  O16  1  0.91154700  0.00680700  0.24119700  1
  O  O17  1  0.91154700  0.50680700  0.25880300  1
  O  O18  1  0.82955300  0.75269900  0.50847000  1
  O  O19  1  0.82955300  0.25269900  0.99153000  1
  O  O20  1  0.66792500  0.77927400  0.10426200  1
  O  O21  1  0.66792500  0.27927400  0.39573800  1
  O  O22  1  0.56106400  0.57159600  0.89607400  1
  O  O23  1  0.56106400  0.07159600  0.60392600  1
  O  O24  1  0.54421200  0.88636400  0.84166000  1
  O  O25  1  0.54421200  0.38636400  0.65834000  1
  O  O26  1  0.45578800  0.88636400  0.34166000  1
  O  O27  1  0.45578800  0.38636400  0.15834000  1
  O  O28  1  0.43893600  0.07159600  0.10392600  1
  O  O29  1  0.43893600  0.57159600  0.39607400  1
  O  O30  1  0.33207500  0.27927400  0.89573800  1
  O  O31  1  0.33207500  0.77927400  0.60426200  1
  O  O32  1  0.17044700  0.25269900  0.49153000  1
  O  O33  1  0.17044700  0.75269900  0.00847000  1
  O  O34  1  0.08845300  0.50680700  0.75880300  1
  O  O35  1  0.08845300  0.00680700  0.74119700  1
