# generated using pymatgen
data_TiBi2O5
_symmetry_space_group_name_H-M   'P 1'
_cell_length_a   3.87467800
_cell_length_b   10.90170900
_cell_length_c   11.62458800
_cell_angle_alpha   90.00000000
_cell_angle_beta   90.00000000
_cell_angle_gamma   90.00000000
_symmetry_Int_Tables_number   1
_chemical_formula_structural   TiBi2O5
_chemical_formula_sum   'Ti4 Bi8 O20'
_cell_volume   491.02971166
_cell_formula_units_Z   4
loop_
 _symmetry_equiv_pos_site_id
 _symmetry_equiv_pos_as_xyz
  1  'x, y, z'
loop_
 _atom_site_type_symbol
 _atom_site_label
 _atom_site_symmetry_multiplicity
 _atom_site_fract_x
 _atom_site_fract_y
 _atom_site_fract_z
 _atom_site_occupancy
  Ti  Ti0  1  0.25000000  0.18420500  0.62290800  1
  Ti  Ti1  1  0.75000000  0.31579500  0.12290800  1
  Ti  Ti2  1  0.25000000  0.68420500  0.87709200  1
  Ti  Ti3  1  0.75000000  0.81579500  0.37709200  1
  Bi  Bi4  1  0.25000000  0.10665800  0.27774300  1
  Bi  Bi5  1  0.25000000  0.13737900  0.94755100  1
  Bi  Bi6  1  0.75000000  0.36262100  0.44755100  1
  Bi  Bi7  1  0.75000000  0.39334200  0.77774300  1
  Bi  Bi8  1  0.25000000  0.60665800  0.22225700  1
  Bi  Bi9  1  0.25000000  0.63737900  0.55244900  1
  Bi  Bi10  1  0.75000000  0.86262100  0.05244900  1
  Bi  Bi11  1  0.75000000  0.89334200  0.72225700  1
  O  O12  1  0.75000000  0.00141200  0.89733500  1
  O  O13  1  0.25000000  0.02570900  0.65784000  1
  O  O14  1  0.25000000  0.22834900  0.46384000  1
  O  O15  1  0.75000000  0.22686800  0.26614600  1
  O  O16  1  0.75000000  0.23984300  0.62039800  1
  O  O17  1  0.25000000  0.26015700  0.12039800  1
  O  O18  1  0.25000000  0.27313200  0.76614600  1
  O  O19  1  0.75000000  0.27165100  0.96384000  1
  O  O20  1  0.75000000  0.47429100  0.15784000  1
  O  O21  1  0.25000000  0.49858800  0.39733500  1
  O  O22  1  0.75000000  0.50141200  0.60266500  1
  O  O23  1  0.25000000  0.52570900  0.84216000  1
  O  O24  1  0.25000000  0.72834900  0.03616000  1
  O  O25  1  0.75000000  0.72686800  0.23385400  1
  O  O26  1  0.75000000  0.73984300  0.87960200  1
  O  O27  1  0.25000000  0.76015700  0.37960200  1
  O  O28  1  0.25000000  0.77313200  0.73385400  1
  O  O29  1  0.75000000  0.77165100  0.53616000  1
  O  O30  1  0.75000000  0.97429100  0.34216000  1
  O  O31  1  0.25000000  0.99858800  0.10266500  1
