# generated using pymatgen
data_Zn(Bi19O30)2
_symmetry_space_group_name_H-M   'P 1'
_cell_length_a   14.70323163
_cell_length_b   14.70323163
_cell_length_c   8.99915700
_cell_angle_alpha   90.00000000
_cell_angle_beta   90.00000000
_cell_angle_gamma   119.99999833
_symmetry_Int_Tables_number   1
_chemical_formula_structural   Zn(Bi19O30)2
_chemical_formula_sum   'Zn1 Bi38 O60'
_cell_volume   1684.83767601
_cell_formula_units_Z   1
loop_
 _symmetry_equiv_pos_site_id
 _symmetry_equiv_pos_as_xyz
  1  'x, y, z'
loop_
 _atom_site_type_symbol
 _atom_site_label
 _atom_site_symmetry_multiplicity
 _atom_site_fract_x
 _atom_site_fract_y
 _atom_site_fract_z
 _atom_site_occupancy
  Zn  Zn0  1  0.00000000  0.00000000  0.99968300  1
  Bi  Bi1  1  0.85288000  0.83448300  0.67820100  1
  Bi  Bi2  1  0.60877600  0.55642600  0.74596100  1
  Bi  Bi3  1  0.03882500  0.77946500  0.90359100  1
  Bi  Bi4  1  0.16551700  0.01839700  0.67820100  1
  Bi  Bi5  1  0.39042300  0.29528100  0.56162900  1
  Bi  Bi6  1  0.65088500  0.49905200  0.34012000  1
  Bi  Bi7  1  0.00875000  0.85488200  0.32555500  1
  Bi  Bi8  1  0.66666700  0.33333300  0.66259800  1
  Bi  Bi9  1  0.44357400  0.05235000  0.74596100  1
  Bi  Bi10  1  0.90485800  0.60957700  0.56162900  1
  Bi  Bi11  1  0.78509300  0.73470900  0.08228700  1
  Bi  Bi12  1  0.50094800  0.15183400  0.34012000  1
  Bi  Bi13  1  0.94765000  0.39122400  0.74596100  1
  Bi  Bi14  1  0.26529100  0.05038300  0.08228700  1
  Bi  Bi15  1  0.27076600  0.88928600  0.42515200  1
  Bi  Bi16  1  0.50795800  0.32331400  0.01448200  1
  Bi  Bi17  1  0.17739700  0.66344100  0.68493300  1
  Bi  Bi18  1  0.70471900  0.09514200  0.56162900  1
  Bi  Bi19  1  0.84816600  0.34911500  0.34012000  1
  Bi  Bi20  1  0.74064100  0.96117500  0.90359100  1
  Bi  Bi21  1  0.06595300  0.63109400  0.22340000  1
  Bi  Bi22  1  0.81535600  0.49204200  0.01448200  1
  Bi  Bi23  1  0.48604400  0.82260300  0.68493300  1
  Bi  Bi24  1  0.31700000  0.83028500  0.01502700  1
  Bi  Bi25  1  0.67668600  0.18464400  0.01448200  1
  Bi  Bi26  1  0.98160300  0.14712000  0.67820100  1
  Bi  Bi27  1  0.33655900  0.51395600  0.68493300  1
  Bi  Bi28  1  0.33333300  0.66666700  0.33767800  1
  Bi  Bi29  1  0.22053500  0.25935900  0.90359100  1
  Bi  Bi30  1  0.56514100  0.93404700  0.22340000  1
  Bi  Bi31  1  0.11071400  0.38148100  0.42515200  1
  Bi  Bi32  1  0.61851900  0.72923400  0.42515200  1
  Bi  Bi33  1  0.16971500  0.48671500  0.01502700  1
  Bi  Bi34  1  0.94961700  0.21490700  0.08228700  1
  Bi  Bi35  1  0.84613200  0.99125000  0.32555500  1
  Bi  Bi36  1  0.51328500  0.68300000  0.01502700  1
  Bi  Bi37  1  0.36890600  0.43485900  0.22340000  1
  Bi  Bi38  1  0.14511800  0.15386800  0.32555500  1
  O  O39  1  0.36639700  0.36487600  0.75056200  1
  O  O40  1  0.87469600  0.74994600  0.87256100  1
  O  O41  1  0.25005400  0.12475100  0.87256100  1
  O  O42  1  0.19854900  0.15994100  0.57480100  1
  O  O43  1  0.71040500  0.67070800  0.59301800  1
  O  O44  1  0.54205600  0.45659600  0.54312700  1
  O  O45  1  0.28244900  0.95111800  0.92909900  1
  O  O46  1  0.96139200  0.80145100  0.57480100  1
  O  O47  1  0.51596200  0.25682900  0.74192000  1
  O  O48  1  0.74086700  0.48403800  0.74192000  1
  O  O49  1  0.32271800  0.29109400  0.08706000  1
  O  O50  1  0.99847900  0.63360300  0.75056200  1
  O  O51  1  0.32929200  0.03969700  0.59301800  1
  O  O52  1  0.16421100  0.95370100  0.40043400  1
  O  O53  1  0.50941400  0.37845300  0.24605200  1
  O  O54  1  0.17685600  0.71006700  0.91914700  1
  O  O55  1  0.07483200  0.92432000  0.07531400  1
  O  O56  1  0.66666700  0.33333300  0.43584500  1
  O  O57  1  0.74317100  0.25913300  0.74192000  1
  O  O58  1  0.38282800  0.87887000  0.74184500  1
  O  O59  1  0.04186000  0.70064900  0.41358000  1
  O  O60  1  0.71760400  0.55065000  0.08146000  1
  O  O61  1  0.91454000  0.45794400  0.54312700  1
  O  O62  1  0.54340400  0.08546000  0.54312700  1
  O  O63  1  0.63512400  0.00152100  0.75056200  1
  O  O64  1  0.86903800  0.49058600  0.24605200  1
  O  O65  1  0.96837700  0.67728200  0.08706000  1
  O  O66  1  0.53321000  0.82314400  0.91914700  1
  O  O67  1  0.37518400  0.99534100  0.26426200  1
  O  O68  1  0.44935000  0.16695400  0.08146000  1
  O  O69  1  0.04888200  0.33133100  0.92909900  1
  O  O70  1  0.12113000  0.50395700  0.74184500  1
  O  O71  1  0.87524900  0.12530400  0.87256100  1
  O  O72  1  0.20958500  0.79082700  0.21078800  1
  O  O73  1  0.66666700  0.33333300  0.03956400  1
  O  O74  1  0.33333300  0.66666700  0.70452600  1
  O  O75  1  0.96030300  0.28959500  0.59301800  1
  O  O76  1  0.62154700  0.13096200  0.24605200  1
  O  O77  1  0.28993300  0.46679000  0.91914700  1
  O  O78  1  0.18109100  0.59123300  0.40891100  1
  O  O79  1  0.41014300  0.81890900  0.40891100  1
  O  O80  1  0.66866900  0.71755100  0.92909900  1
  O  O81  1  0.65878900  0.95814000  0.41358000  1
  O  O82  1  0.00465900  0.37984300  0.26426200  1
  O  O83  1  0.83304600  0.28239600  0.08146000  1
  O  O84  1  0.49604300  0.61717200  0.74184500  1
  O  O85  1  0.84005900  0.03860800  0.57480100  1
  O  O86  1  0.33333300  0.66666700  0.10999700  1
  O  O87  1  0.00000000  0.00000000  0.77218100  1
  O  O88  1  0.40876700  0.58985700  0.40891100  1
  O  O89  1  0.70890600  0.03162300  0.08706000  1
  O  O90  1  0.04629900  0.21051000  0.40043400  1
  O  O91  1  0.58124300  0.79041500  0.21078800  1
  O  O92  1  0.20917300  0.41875700  0.21078800  1
  O  O93  1  0.29935100  0.34121100  0.41358000  1
  O  O94  1  0.78949000  0.83578900  0.40043400  1
  O  O95  1  0.00000000  0.00000000  0.37508900  1
  O  O96  1  0.62015700  0.62481600  0.26426200  1
  O  O97  1  0.07568000  0.15051200  0.07531400  1
  O  O98  1  0.84948800  0.92516800  0.07531400  1
