# generated using pymatgen
data_Na3CoO3
_symmetry_space_group_name_H-M   'P 1'
_cell_length_a   4.51600600
_cell_length_b   9.06203100
_cell_length_c   9.23015800
_cell_angle_alpha   90.00000000
_cell_angle_beta   90.00000000
_cell_angle_gamma   90.00000000
_symmetry_Int_Tables_number   1
_chemical_formula_structural   Na3CoO3
_chemical_formula_sum   'Na12 Co4 O12'
_cell_volume   377.73670620
_cell_formula_units_Z   4
loop_
 _symmetry_equiv_pos_site_id
 _symmetry_equiv_pos_as_xyz
  1  'x, y, z'
loop_
 _atom_site_type_symbol
 _atom_site_label
 _atom_site_symmetry_multiplicity
 _atom_site_fract_x
 _atom_site_fract_y
 _atom_site_fract_z
 _atom_site_occupancy
  Na  Na0  1  0.00000000  0.12971600  0.62662000  1
  Na  Na1  1  0.50000000  0.12615800  0.37001600  1
  Na  Na2  1  0.50000000  0.14449100  0.85487500  1
  Na  Na3  1  0.00000000  0.35550900  0.35487500  1
  Na  Na4  1  0.00000000  0.37384200  0.87001600  1
  Na  Na5  1  0.50000000  0.37028400  0.12662000  1
  Na  Na6  1  0.50000000  0.62971600  0.87338000  1
  Na  Na7  1  0.00000000  0.62615800  0.12998400  1
  Na  Na8  1  0.00000000  0.64449100  0.64512500  1
  Na  Na9  1  0.50000000  0.85550900  0.14512500  1
  Na  Na10  1  0.50000000  0.87384200  0.62998400  1
  Na  Na11  1  0.00000000  0.87028400  0.37338000  1
  Co  Co12  1  0.00000000  0.11352900  0.11398400  1
  Co  Co13  1  0.50000000  0.38647100  0.61398400  1
  Co  Co14  1  0.50000000  0.61352900  0.38601600  1
  Co  Co15  1  0.00000000  0.88647100  0.88601600  1
  O  O16  1  0.00000000  0.09187400  0.90278500  1
  O  O17  1  0.00000000  0.10568600  0.31156600  1
  O  O18  1  0.50000000  0.19087100  0.60557200  1
  O  O19  1  0.00000000  0.30912900  0.10557200  1
  O  O20  1  0.50000000  0.39431400  0.81156600  1
  O  O21  1  0.50000000  0.40812600  0.40278500  1
  O  O22  1  0.50000000  0.59187400  0.59721500  1
  O  O23  1  0.50000000  0.60568600  0.18843400  1
  O  O24  1  0.00000000  0.69087100  0.89442800  1
  O  O25  1  0.50000000  0.80912900  0.39442800  1
  O  O26  1  0.00000000  0.89431400  0.68843400  1
  O  O27  1  0.00000000  0.90812600  0.09721500  1
