# generated using pymatgen
data_Co(IO3)2
_symmetry_space_group_name_H-M   'P 1'
_cell_length_a   5.37153700
_cell_length_b   5.65941900
_cell_length_c   17.74627800
_cell_angle_alpha   90.00000000
_cell_angle_beta   90.00000000
_cell_angle_gamma   90.00000000
_symmetry_Int_Tables_number   1
_chemical_formula_structural   Co(IO3)2
_chemical_formula_sum   'Co4 I8 O24'
_cell_volume   539.48292141
_cell_formula_units_Z   4
loop_
 _symmetry_equiv_pos_site_id
 _symmetry_equiv_pos_as_xyz
  1  'x, y, z'
loop_
 _atom_site_type_symbol
 _atom_site_label
 _atom_site_symmetry_multiplicity
 _atom_site_fract_x
 _atom_site_fract_y
 _atom_site_fract_z
 _atom_site_occupancy
  Co  Co0  1  0.72344800  0.17189500  0.10021300  1
  Co  Co1  1  0.22344800  0.32810500  0.89978700  1
  Co  Co2  1  0.27655200  0.67189500  0.39978700  1
  Co  Co3  1  0.77655200  0.82810500  0.60021300  1
  I  I4  1  0.97656700  0.13967500  0.42487200  1
  I  I5  1  0.25702900  0.21930500  0.20586900  1
  I  I6  1  0.75702900  0.28069500  0.79413100  1
  I  I7  1  0.47656700  0.36032500  0.57512800  1
  I  I8  1  0.02343300  0.63967500  0.07512800  1
  I  I9  1  0.74297100  0.71930500  0.29413100  1
  I  I10  1  0.24297100  0.78069500  0.70586900  1
  I  I11  1  0.52343300  0.86032500  0.92487200  1
  O  O12  1  0.10241200  0.00153400  0.33638600  1
  O  O13  1  0.02897300  0.02173000  0.15792900  1
  O  O14  1  0.52054100  0.01169300  0.20442800  1
  O  O15  1  0.41908700  0.11792300  0.97973900  1
  O  O16  1  0.89309000  0.13076900  0.87786100  1
  O  O17  1  0.74621900  0.16587400  0.54913900  1
  O  O18  1  0.24621900  0.33412600  0.45086100  1
  O  O19  1  0.39309000  0.36923100  0.12213900  1
  O  O20  1  0.91908700  0.38207700  0.02026100  1
  O  O21  1  0.02054100  0.48830700  0.79557200  1
  O  O22  1  0.52897300  0.47827000  0.84207100  1
  O  O23  1  0.60241200  0.49846600  0.66361400  1
  O  O24  1  0.89758800  0.50153400  0.16361400  1
  O  O25  1  0.97102700  0.52173000  0.34207100  1
  O  O26  1  0.47945900  0.51169300  0.29557200  1
  O  O27  1  0.58091300  0.61792300  0.52026100  1
  O  O28  1  0.10691000  0.63076900  0.62213900  1
  O  O29  1  0.25378100  0.66587400  0.95086100  1
  O  O30  1  0.75378100  0.83412600  0.04913900  1
  O  O31  1  0.60691000  0.86923100  0.37786100  1
  O  O32  1  0.08091300  0.88207700  0.47973900  1
  O  O33  1  0.97945900  0.98830700  0.70442800  1
  O  O34  1  0.47102700  0.97827000  0.65792900  1
  O  O35  1  0.39758800  0.99846600  0.83638600  1
