# generated using pymatgen
data_Na3FeO4
_symmetry_space_group_name_H-M   'P 1'
_cell_length_a   8.92056700
_cell_length_b   10.02685900
_cell_length_c   10.38932300
_cell_angle_alpha   90.00000000
_cell_angle_beta   90.00000000
_cell_angle_gamma   90.00000000
_symmetry_Int_Tables_number   1
_chemical_formula_structural   Na3FeO4
_chemical_formula_sum   'Na24 Fe8 O32'
_cell_volume   929.27577497
_cell_formula_units_Z   8
loop_
 _symmetry_equiv_pos_site_id
 _symmetry_equiv_pos_as_xyz
  1  'x, y, z'
loop_
 _atom_site_type_symbol
 _atom_site_label
 _atom_site_symmetry_multiplicity
 _atom_site_fract_x
 _atom_site_fract_y
 _atom_site_fract_z
 _atom_site_occupancy
  Na  Na0  1  0.04080000  0.12863900  0.90347000  1
  Na  Na1  1  0.04080000  0.62863900  0.59653000  1
  Na  Na2  1  0.11994600  0.53806400  0.14337500  1
  Na  Na3  1  0.11994600  0.03806400  0.35662500  1
  Na  Na4  1  0.21427000  0.23022600  0.62286300  1
  Na  Na5  1  0.21427000  0.73022600  0.87713700  1
  Na  Na6  1  0.28573000  0.23022600  0.12286300  1
  Na  Na7  1  0.28573000  0.73022600  0.37713700  1
  Na  Na8  1  0.38005400  0.53806400  0.64337500  1
  Na  Na9  1  0.38005400  0.03806400  0.85662500  1
  Na  Na10  1  0.45920000  0.62863900  0.09653000  1
  Na  Na11  1  0.45920000  0.12863900  0.40347000  1
  Na  Na12  1  0.54080000  0.87136100  0.59653000  1
  Na  Na13  1  0.54080000  0.37136100  0.90347000  1
  Na  Na14  1  0.61994600  0.46193600  0.35662500  1
  Na  Na15  1  0.61994600  0.96193600  0.14337500  1
  Na  Na16  1  0.71427000  0.26977400  0.62286300  1
  Na  Na17  1  0.71427000  0.76977400  0.87713700  1
  Na  Na18  1  0.78573000  0.26977400  0.12286300  1
  Na  Na19  1  0.78573000  0.76977400  0.37713700  1
  Na  Na20  1  0.88005400  0.96193600  0.64337500  1
  Na  Na21  1  0.88005400  0.46193600  0.85662500  1
  Na  Na22  1  0.95920000  0.87136100  0.09653000  1
  Na  Na23  1  0.95920000  0.37136100  0.40347000  1
  Fe  Fe24  1  0.20696000  0.90358500  0.61780200  1
  Fe  Fe25  1  0.20696000  0.40358500  0.88219800  1
  Fe  Fe26  1  0.29304000  0.90358500  0.11780200  1
  Fe  Fe27  1  0.29304000  0.40358500  0.38219800  1
  Fe  Fe28  1  0.70696000  0.59641500  0.61780200  1
  Fe  Fe29  1  0.70696000  0.09641500  0.88219800  1
  Fe  Fe30  1  0.79304000  0.59641500  0.11780200  1
  Fe  Fe31  1  0.79304000  0.09641500  0.38219800  1
  O  O32  1  0.08758800  0.84357300  0.49800200  1
  O  O33  1  0.08758800  0.34357300  0.00199800  1
  O  O34  1  0.12540300  0.48275200  0.75119100  1
  O  O35  1  0.12540300  0.98275200  0.74880900  1
  O  O36  1  0.17627000  0.02859800  0.06286700  1
  O  O37  1  0.17627000  0.52859800  0.43713300  1
  O  O38  1  0.19777700  0.75845300  0.15960900  1
  O  O39  1  0.19777700  0.25845300  0.34039100  1
  O  O40  1  0.30222300  0.75845300  0.65960900  1
  O  O41  1  0.30222300  0.25845300  0.84039100  1
  O  O42  1  0.32373000  0.02859800  0.56286700  1
  O  O43  1  0.32373000  0.52859800  0.93713300  1
  O  O44  1  0.37459700  0.98275200  0.24880900  1
  O  O45  1  0.37459700  0.48275200  0.25119100  1
  O  O46  1  0.41241200  0.84357300  0.99800200  1
  O  O47  1  0.41241200  0.34357300  0.50199800  1
  O  O48  1  0.58758800  0.65642700  0.49800200  1
  O  O49  1  0.58758800  0.15642700  0.00199800  1
  O  O50  1  0.62540300  0.51724800  0.74880900  1
  O  O51  1  0.62540300  0.01724800  0.75119100  1
  O  O52  1  0.67627000  0.47140200  0.06286700  1
  O  O53  1  0.67627000  0.97140200  0.43713300  1
  O  O54  1  0.69777700  0.74154700  0.15960900  1
  O  O55  1  0.69777700  0.24154700  0.34039100  1
  O  O56  1  0.80222300  0.24154700  0.84039100  1
  O  O57  1  0.80222300  0.74154700  0.65960900  1
  O  O58  1  0.82373000  0.47140200  0.56286700  1
  O  O59  1  0.82373000  0.97140200  0.93713300  1
  O  O60  1  0.87459700  0.51724800  0.24880900  1
  O  O61  1  0.87459700  0.01724800  0.25119100  1
  O  O62  1  0.91241200  0.65642700  0.99800200  1
  O  O63  1  0.91241200  0.15642700  0.50199800  1
