# generated using pymatgen
data_V4(OF3)3
_symmetry_space_group_name_H-M   'P 1'
_cell_length_a   5.23734000
_cell_length_b   5.38943368
_cell_length_c   17.42589644
_cell_angle_alpha   89.36880421
_cell_angle_beta   97.81420910
_cell_angle_gamma   118.44711881
_symmetry_Int_Tables_number   1
_chemical_formula_structural   V4(OF3)3
_chemical_formula_sum   'V8 O6 F18'
_cell_volume   427.64657278
_cell_formula_units_Z   2
loop_
 _symmetry_equiv_pos_site_id
 _symmetry_equiv_pos_as_xyz
  1  'x, y, z'
loop_
 _atom_site_type_symbol
 _atom_site_label
 _atom_site_symmetry_multiplicity
 _atom_site_fract_x
 _atom_site_fract_y
 _atom_site_fract_z
 _atom_site_occupancy
  V  V0  1  0.75145600  0.36780600  0.12476000  1
  V  V1  1  0.74770700  0.91296800  0.62195400  1
  V  V2  1  0.51327900  0.72002400  0.24816900  1
  V  V3  1  0.51271000  0.24922600  0.74751900  1
  V  V4  1  0.24962900  0.08863600  0.37908400  1
  V  V5  1  0.24443800  0.64393500  0.88229000  1
  V  V6  1  0.98935200  0.01438200  0.00163900  1
  V  V7  1  0.99845500  0.49941300  0.50020400  1
  O  O8  1  0.79001800  0.17727900  0.56450100  1
  O  O9  1  0.84947800  0.19880500  0.04069900  1
  O  O10  1  0.17053600  0.78918400  0.95562200  1
  O  O11  1  0.65566600  0.53975500  0.20883800  1
  O  O12  1  0.65503400  0.06500700  0.70855200  1
  O  O13  1  0.20773700  0.82165000  0.43508400  1
  F  F14  1  0.32823200  0.14804400  0.08479400  1
  F  F15  1  0.77677400  0.67796800  0.05903800  1
  F  F16  1  0.72150900  0.05842100  0.19013800  1
  F  F17  1  0.33234400  0.95000500  0.28778000  1
  F  F18  1  0.32307600  0.66654000  0.58673400  1
  F  F19  1  0.33509200  0.46298600  0.79288400  1
  F  F20  1  0.17373500  0.59110600  0.16536600  1
  F  F21  1  0.16888700  0.09490500  0.66484100  1
  F  F22  1  0.18053100  0.29681700  0.45978300  1
  F  F23  1  0.28480600  0.42647300  0.31510700  1
  F  F24  1  0.71269300  0.58509500  0.68836900  1
  F  F25  1  0.82579300  0.91415000  0.33667100  1
  F  F26  1  0.81902100  0.70326600  0.54064600  1
  F  F27  1  0.82747400  0.40919100  0.83771300  1
  F  F28  1  0.67478800  0.33091600  0.41296400  1
  F  F29  1  0.27150500  0.93619600  0.81042100  1
  F  F30  1  0.23208200  0.31640100  0.93700100  1
  F  F31  1  0.67616700  0.84344800  0.91083700  1
