# generated using pymatgen
data_Na4P3H3O11
_symmetry_space_group_name_H-M   'P 1'
_cell_length_a   6.95621800
_cell_length_b   11.96466000
_cell_length_c   12.08497600
_cell_angle_alpha   90.00000000
_cell_angle_beta   90.00000000
_cell_angle_gamma   90.00000000
_symmetry_Int_Tables_number   1
_chemical_formula_structural   Na4P3H3O11
_chemical_formula_sum   'Na16 P12 H12 O44'
_cell_volume   1005.81784816
_cell_formula_units_Z   4
loop_
 _symmetry_equiv_pos_site_id
 _symmetry_equiv_pos_as_xyz
  1  'x, y, z'
loop_
 _atom_site_type_symbol
 _atom_site_label
 _atom_site_symmetry_multiplicity
 _atom_site_fract_x
 _atom_site_fract_y
 _atom_site_fract_z
 _atom_site_occupancy
  Na  Na0  1  0.18633300  0.00422600  0.19147000  1
  Na  Na1  1  0.18633300  0.50422600  0.80853000  1
  Na  Na2  1  0.20910700  0.31498200  0.09221700  1
  Na  Na3  1  0.20910700  0.81498200  0.90778300  1
  Na  Na4  1  0.29089300  0.81498200  0.40778300  1
  Na  Na5  1  0.29089300  0.31498200  0.59221700  1
  Na  Na6  1  0.31366700  0.00422600  0.69147000  1
  Na  Na7  1  0.31366700  0.50422600  0.30853000  1
  Na  Na8  1  0.68633300  0.99577400  0.30853000  1
  Na  Na9  1  0.68633300  0.49577400  0.69147000  1
  Na  Na10  1  0.70910700  0.18501800  0.59221700  1
  Na  Na11  1  0.70910700  0.68501800  0.40778300  1
  Na  Na12  1  0.79089300  0.18501800  0.09221700  1
  Na  Na13  1  0.79089300  0.68501800  0.90778300  1
  Na  Na14  1  0.81366700  0.49577400  0.19147000  1
  Na  Na15  1  0.81366700  0.99577400  0.80853000  1
  P  P16  1  0.00000000  0.25000000  0.33812400  1
  P  P17  1  0.00000000  0.75000000  0.66187600  1
  P  P18  1  0.20887700  0.59715800  0.06377500  1
  P  P19  1  0.20887700  0.09715800  0.93622500  1
  P  P20  1  0.29112300  0.09715800  0.43622500  1
  P  P21  1  0.29112300  0.59715800  0.56377500  1
  P  P22  1  0.50000000  0.25000000  0.83812400  1
  P  P23  1  0.50000000  0.75000000  0.16187600  1
  P  P24  1  0.70887700  0.40284200  0.43622500  1
  P  P25  1  0.70887700  0.90284200  0.56377500  1
  P  P26  1  0.79112300  0.90284200  0.06377500  1
  P  P27  1  0.79112300  0.40284200  0.93622500  1
  H  H28  1  0.00000000  0.00000000  0.50000000  1
  H  H29  1  0.00000000  0.50000000  0.50000000  1
  H  H30  1  0.02792000  0.18777300  0.73233000  1
  H  H31  1  0.02792000  0.68777300  0.26767000  1
  H  H32  1  0.47208000  0.18777300  0.23233000  1
  H  H33  1  0.47208000  0.68777300  0.76767000  1
  H  H34  1  0.50000000  0.00000000  0.00000000  1
  H  H35  1  0.50000000  0.50000000  0.00000000  1
  H  H36  1  0.52792000  0.81222700  0.76767000  1
  H  H37  1  0.52792000  0.31222700  0.23233000  1
  H  H38  1  0.97208000  0.81222700  0.26767000  1
  H  H39  1  0.97208000  0.31222700  0.73233000  1
  O  O40  1  0.00000000  0.25000000  0.68015000  1
  O  O41  1  0.00000000  0.75000000  0.31985000  1
  O  O42  1  0.07722700  0.34908600  0.27507500  1
  O  O43  1  0.07722700  0.84908600  0.72492500  1
  O  O44  1  0.09400800  0.12096700  0.03957300  1
  O  O45  1  0.09400800  0.62096700  0.96042700  1
  O  O46  1  0.10290800  0.58597500  0.17378700  1
  O  O47  1  0.10290800  0.08597500  0.82621300  1
  O  O48  1  0.15075000  0.99553600  0.44982700  1
  O  O49  1  0.15075000  0.49553600  0.55017300  1
  O  O50  1  0.15811800  0.21045900  0.42803500  1
  O  O51  1  0.15811800  0.71045900  0.57196500  1
  O  O52  1  0.34188200  0.71045900  0.07196500  1
  O  O53  1  0.34188200  0.21045900  0.92803500  1
  O  O54  1  0.34925000  0.49553600  0.05017300  1
  O  O55  1  0.34925000  0.99553600  0.94982700  1
  O  O56  1  0.39709200  0.08597500  0.32621300  1
  O  O57  1  0.39709200  0.58597500  0.67378700  1
  O  O58  1  0.40599200  0.12096700  0.53957300  1
  O  O59  1  0.40599200  0.62096700  0.46042700  1
  O  O60  1  0.42277300  0.84908600  0.22492500  1
  O  O61  1  0.42277300  0.34908600  0.77507500  1
  O  O62  1  0.50000000  0.25000000  0.18015000  1
  O  O63  1  0.50000000  0.75000000  0.81985000  1
  O  O64  1  0.57722700  0.65091400  0.22492500  1
  O  O65  1  0.57722700  0.15091400  0.77507500  1
  O  O66  1  0.59400800  0.37903300  0.53957300  1
  O  O67  1  0.59400800  0.87903300  0.46042700  1
  O  O68  1  0.60290800  0.41402500  0.32621300  1
  O  O69  1  0.60290800  0.91402500  0.67378700  1
  O  O70  1  0.65075000  0.00446400  0.05017300  1
  O  O71  1  0.65075000  0.50446400  0.94982700  1
  O  O72  1  0.65811800  0.78954100  0.07196500  1
  O  O73  1  0.65811800  0.28954100  0.92803500  1
  O  O74  1  0.84188200  0.28954100  0.42803500  1
  O  O75  1  0.84188200  0.78954100  0.57196500  1
  O  O76  1  0.84925000  0.00446400  0.55017300  1
  O  O77  1  0.84925000  0.50446400  0.44982700  1
  O  O78  1  0.89709200  0.91402500  0.17378700  1
  O  O79  1  0.89709200  0.41402500  0.82621300  1
  O  O80  1  0.90599200  0.37903300  0.03957300  1
  O  O81  1  0.90599200  0.87903300  0.96042700  1
  O  O82  1  0.92277300  0.15091400  0.27507500  1
  O  O83  1  0.92277300  0.65091400  0.72492500  1
