# generated using pymatgen
data_Na5Bi2As(CO4)4
_symmetry_space_group_name_H-M   'P 1'
_cell_length_a   10.43571000
_cell_length_b   10.44947636
_cell_length_c   18.04874800
_cell_angle_alpha   73.77474702
_cell_angle_beta   73.61970096
_cell_angle_gamma   60.30787526
_symmetry_Int_Tables_number   1
_chemical_formula_structural   Na5Bi2As(CO4)4
_chemical_formula_sum   'Na20 Bi8 As4 C16 O64'
_cell_volume   1617.13977465
_cell_formula_units_Z   4
loop_
 _symmetry_equiv_pos_site_id
 _symmetry_equiv_pos_as_xyz
  1  'x, y, z'
loop_
 _atom_site_type_symbol
 _atom_site_label
 _atom_site_symmetry_multiplicity
 _atom_site_fract_x
 _atom_site_fract_y
 _atom_site_fract_z
 _atom_site_occupancy
  Na  Na0  1  0.40467700  0.91676900  0.16105200  1
  Na  Na1  1  0.28457600  0.78607100  0.53506900  1
  Na  Na2  1  0.78574100  0.28454000  0.03523700  1
  Na  Na3  1  0.71294700  0.60942900  0.46483000  1
  Na  Na4  1  0.41191400  0.51219800  0.15701800  1
  Na  Na5  1  0.21520700  0.10493200  0.96372100  1
  Na  Na6  1  0.10529200  0.21500400  0.46327700  1
  Na  Na7  1  0.02263000  0.90957600  0.16441200  1
  Na  Na8  1  0.51182600  0.41183700  0.65735200  1
  Na  Na9  1  0.09163600  0.58775800  0.33982700  1
  Na  Na10  1  0.91716100  0.40491400  0.66059600  1
  Na  Na11  1  0.78438600  0.89758300  0.03409200  1
  Na  Na12  1  0.47682300  0.59088700  0.34052300  1
  Na  Na13  1  0.58995200  0.47667200  0.84057100  1
  Na  Na14  1  0.89748700  0.78454900  0.53426800  1
  Na  Na15  1  0.21376200  0.71463000  0.96394300  1
  Na  Na16  1  0.71441100  0.21372200  0.46428900  1
  Na  Na17  1  0.90890900  0.02330500  0.66431800  1
  Na  Na18  1  0.60978000  0.71282400  0.96479900  1
  Na  Na19  1  0.58778700  0.09165100  0.83979500  1
  Bi  Bi20  1  0.00689000  0.49693300  0.99947300  1
  Bi  Bi21  1  0.24980400  0.24639600  0.24827200  1
  Bi  Bi22  1  0.49608200  0.00825800  0.49932800  1
  Bi  Bi23  1  0.75447700  0.24493500  0.25215700  1
  Bi  Bi24  1  0.24545800  0.75280100  0.75183100  1
  Bi  Bi25  1  0.75364800  0.74652500  0.75079700  1
  Bi  Bi26  1  0.74733300  0.75466100  0.25032200  1
  Bi  Bi27  1  0.24645400  0.24957500  0.74807800  1
  As  As28  1  0.18719500  0.68764700  0.43754200  1
  As  As29  1  0.31427200  0.81072100  0.06254800  1
  As  As30  1  0.68773600  0.18715900  0.93747500  1
  As  As31  1  0.81057300  0.31441400  0.56250900  1
  C  C32  1  0.07877700  0.19563300  0.13643600  1
  C  C33  1  0.07832200  0.58723800  0.14153900  1
  C  C34  1  0.42097100  0.92039100  0.36075100  1
  C  C35  1  0.61284300  0.10722700  0.17067800  1
  C  C36  1  0.11015600  0.61092600  0.67078100  1
  C  C37  1  0.41922800  0.30037100  0.35797900  1
  C  C38  1  0.79889500  0.91802300  0.36042200  1
  C  C39  1  0.30081300  0.42241800  0.85769200  1
  C  C40  1  0.19541300  0.07774600  0.63693000  1
  C  C41  1  0.69710600  0.58111600  0.13925600  1
  C  C42  1  0.58093000  0.69695000  0.63917600  1
  C  C43  1  0.58777600  0.07807000  0.64108500  1
  C  C44  1  0.88612100  0.39588900  0.33289000  1
  C  C45  1  0.39602300  0.88732000  0.83274100  1
  C  C46  1  0.91811300  0.42332300  0.85969500  1
  C  C47  1  0.91939200  0.79744400  0.86203500  1
  O  O48  1  0.12899800  0.25847800  0.07019200  1
  O  O49  1  0.07617800  0.59585000  0.46763300  1
  O  O50  1  0.22682100  0.70795400  0.33608700  1
  O  O51  1  0.15264300  0.13701900  0.19394400  1
  O  O52  1  0.02629500  0.64009900  0.07587200  1
  O  O53  1  0.35927200  0.59673300  0.46839400  1
  O  O54  1  0.08654200  0.85022100  0.47784800  1
  O  O55  1  0.98825800  0.36503500  0.79667600  1
  O  O56  1  0.48485900  0.10951200  0.17677000  1
  O  O57  1  0.48612800  0.84749100  0.30211300  1
  O  O58  1  0.20043000  0.46417500  0.14875300  1
  O  O59  1  0.30344100  0.04877300  0.35562800  1
  O  O60  1  0.22843000  0.48332300  0.67730400  1
  O  O61  1  0.73479600  0.98113700  0.16615100  1
  O  O62  1  0.01707700  0.38394200  0.33178400  1
  O  O63  1  0.41450900  0.64411900  0.02698400  1
  O  O64  1  0.14405400  0.91201100  0.03067700  1
  O  O65  1  0.47594500  0.86318900  0.42595000  1
  O  O66  1  0.62086100  0.22840100  0.16966100  1
  O  O67  1  0.11830900  0.73309700  0.66879900  1
  O  O68  1  0.34967100  0.36357400  0.29788500  1
  O  O69  1  0.80677200  0.79004600  0.35864500  1
  O  O70  1  0.30605000  0.29735600  0.85338400  1
  O  O71  1  0.41435300  0.91266800  0.02892500  1
  O  O72  1  0.28466800  0.77349400  0.16361200  1
  O  O73  1  0.95385500  0.18816900  0.14414000  1
  O  O74  1  0.45671100  0.69080000  0.64467200  1
  O  O75  1  0.26176100  0.02656700  0.57061100  1
  O  O76  1  0.76154200  0.52788300  0.07397500  1
  O  O77  1  0.85033800  0.98707800  0.29753600  1
  O  O78  1  0.36497700  0.23185300  0.41983700  1
  O  O79  1  0.36612800  0.48782700  0.79888100  1
  O  O80  1  0.63391000  0.76248700  0.57470200  1
  O  O81  1  0.63948000  0.51004600  0.19859300  1
  O  O82  1  0.13567100  0.00515400  0.69350200  1
  O  O83  1  0.04695800  0.79356900  0.85829400  1
  O  O84  1  0.73836300  0.97461900  0.42470400  1
  O  O85  1  0.23085400  0.48375100  0.91995800  1
  O  O86  1  0.54233900  0.30668900  0.35512700  1
  O  O87  1  0.59578000  0.07631300  0.96762000  1
  O  O88  1  0.70871400  0.22674300  0.83600100  1
  O  O89  1  0.18685900  0.20126000  0.64461700  1
  O  O90  1  0.68839200  0.70733600  0.14450100  1
  O  O91  1  0.65316300  0.63525900  0.69807600  1
  O  O92  1  0.87089700  0.27912300  0.33529500  1
  O  O93  1  0.53983200  0.13107000  0.57501900  1
  O  O94  1  0.38257100  0.76951200  0.83320300  1
  O  O95  1  0.59625100  0.35917600  0.96838600  1
  O  O96  1  0.85021000  0.08635600  0.97777600  1
  O  O97  1  0.98339200  0.62012100  0.66672600  1
  O  O98  1  0.71268800  0.95458700  0.64781800  1
  O  O99  1  0.28093400  0.01727300  0.83274300  1
  O  O100  1  0.76857600  0.52668100  0.33327100  1
  O  O101  1  0.78987000  0.54369700  0.85826500  1
  O  O102  1  0.52761300  0.87261600  0.83402200  1
  O  O103  1  0.51463600  0.14826200  0.70066400  1
  O  O104  1  0.00709000  0.66169700  0.19996600  1
  O  O105  1  0.91207400  0.14436900  0.53041200  1
  O  O106  1  0.64394800  0.41496300  0.52708900  1
  O  O107  1  0.97405000  0.36444300  0.92418800  1
  O  O108  1  0.85013100  0.86066300  0.80194500  1
  O  O109  1  0.91276900  0.41429300  0.52885600  1
  O  O110  1  0.77322600  0.28473900  0.66358800  1
  O  O111  1  0.86037900  0.73629500  0.92634300  1
