# generated using pymatgen
data_Rb2GeF6
_symmetry_space_group_name_H-M   'P 1'
_cell_length_a   6.07953050
_cell_length_b   6.07953050
_cell_length_c   9.90047800
_cell_angle_alpha   90.00000000
_cell_angle_beta   90.00000000
_cell_angle_gamma   120.00000544
_symmetry_Int_Tables_number   1
_chemical_formula_structural   Rb2GeF6
_chemical_formula_sum   'Rb4 Ge2 F12'
_cell_volume   316.90336745
_cell_formula_units_Z   2
loop_
 _symmetry_equiv_pos_site_id
 _symmetry_equiv_pos_as_xyz
  1  'x, y, z'
loop_
 _atom_site_type_symbol
 _atom_site_label
 _atom_site_symmetry_multiplicity
 _atom_site_fract_x
 _atom_site_fract_y
 _atom_site_fract_z
 _atom_site_occupancy
  Rb  Rb0  1  0.00000000  0.00000000  0.09560600  1
  Rb  Rb1  1  0.00000000  0.00000000  0.59560600  1
  Rb  Rb2  1  0.66666700  0.33333300  0.37228400  1
  Rb  Rb3  1  0.33333300  0.66666700  0.87228400  1
  Ge  Ge4  1  0.66666700  0.33333300  0.75701500  1
  Ge  Ge5  1  0.33333300  0.66666700  0.25701500  1
  F  F6  1  0.52497400  0.47502600  0.64813900  1
  F  F7  1  0.04994800  0.52497400  0.14813900  1
  F  F8  1  0.47502600  0.95005200  0.14813900  1
  F  F9  1  0.52497400  0.04994800  0.64813900  1
  F  F10  1  0.95005200  0.47502600  0.64813900  1
  F  F11  1  0.47502600  0.52497400  0.14813900  1
  F  F12  1  0.18840900  0.81159100  0.36022600  1
  F  F13  1  0.37681700  0.18840900  0.86022600  1
  F  F14  1  0.81159100  0.62318300  0.86022600  1
  F  F15  1  0.18840900  0.37681700  0.36022600  1
  F  F16  1  0.62318300  0.81159100  0.36022600  1
  F  F17  1  0.81159100  0.18840900  0.86022600  1
