# generated using pymatgen
data_Sr2CoCO3F5
_symmetry_space_group_name_H-M   'P 1'
_cell_length_a   8.92027400
_cell_length_b   5.57440800
_cell_length_c   13.77776207
_cell_angle_alpha   75.07142205
_cell_angle_beta   90.00000000
_cell_angle_gamma   90.00000000
_symmetry_Int_Tables_number   1
_chemical_formula_structural   Sr2CoCO3F5
_chemical_formula_sum   'Sr8 Co4 C4 O12 F20'
_cell_volume   661.97883386
_cell_formula_units_Z   4
loop_
 _symmetry_equiv_pos_site_id
 _symmetry_equiv_pos_as_xyz
  1  'x, y, z'
loop_
 _atom_site_type_symbol
 _atom_site_label
 _atom_site_symmetry_multiplicity
 _atom_site_fract_x
 _atom_site_fract_y
 _atom_site_fract_z
 _atom_site_occupancy
  Sr  Sr0  1  0.88838600  0.69150300  0.09730600  1
  Sr  Sr1  1  0.36153000  0.69129000  0.08391800  1
  Sr  Sr2  1  0.86153000  0.30871000  0.41608200  1
  Sr  Sr3  1  0.38838600  0.30849700  0.40269400  1
  Sr  Sr4  1  0.61161400  0.69150300  0.59730600  1
  Sr  Sr5  1  0.13847000  0.69129000  0.58391800  1
  Sr  Sr6  1  0.63847000  0.30871000  0.91608200  1
  Sr  Sr7  1  0.11161400  0.30849700  0.90269400  1
  Co  Co8  1  0.87217600  0.19120400  0.67340900  1
  Co  Co9  1  0.37217600  0.80879600  0.82659100  1
  Co  Co10  1  0.62782400  0.19120400  0.17340900  1
  Co  Co11  1  0.12782400  0.80879600  0.32659100  1
  C  C12  1  0.37589300  0.17914800  0.63666400  1
  C  C13  1  0.87589300  0.82085200  0.86333600  1
  C  C14  1  0.12410700  0.17914800  0.13666400  1
  C  C15  1  0.62410700  0.82085200  0.36333600  1
  O  O16  1  0.38108000  0.41017700  0.58546700  1
  O  O17  1  0.36872900  0.13513000  0.73426000  1
  O  O18  1  0.87728600  0.99603000  0.90894700  1
  O  O19  1  0.11892000  0.41017700  0.08546700  1
  O  O20  1  0.37728600  0.00397000  0.59105300  1
  O  O21  1  0.86872900  0.86487000  0.76574000  1
  O  O22  1  0.13127100  0.13513000  0.23426000  1
  O  O23  1  0.62271400  0.99603000  0.40894700  1
  O  O24  1  0.88108000  0.58982300  0.91453300  1
  O  O25  1  0.12271400  0.00397000  0.09105300  1
  O  O26  1  0.63127100  0.86487000  0.26574000  1
  O  O27  1  0.61892000  0.58982300  0.41453300  1
  F  F28  1  0.96119200  0.67156100  0.27291000  1
  F  F29  1  0.28278800  0.66975200  0.26423600  1
  F  F30  1  0.13028300  0.47154800  0.43441500  1
  F  F31  1  0.63028300  0.52845200  0.06558500  1
  F  F32  1  0.51229700  0.91654300  0.91363600  1
  F  F33  1  0.71721700  0.10630300  0.58581000  1
  F  F34  1  0.78278800  0.33024800  0.23576400  1
  F  F35  1  0.46119200  0.32843900  0.22709000  1
  F  F36  1  0.21721700  0.89369700  0.91419000  1
  F  F37  1  0.01229700  0.08345700  0.58636400  1
  F  F38  1  0.98770300  0.91654300  0.41363600  1
  F  F39  1  0.78278300  0.10630300  0.08581000  1
  F  F40  1  0.53880800  0.67156100  0.77291000  1
  F  F41  1  0.21721200  0.66975200  0.76423600  1
  F  F42  1  0.28278300  0.89369700  0.41419000  1
  F  F43  1  0.48770300  0.08345700  0.08636400  1
  F  F44  1  0.36971700  0.47154800  0.93441500  1
  F  F45  1  0.86971700  0.52845200  0.56558500  1
  F  F46  1  0.71721200  0.33024800  0.73576400  1
  F  F47  1  0.03880800  0.32843900  0.72709000  1
