# generated using pymatgen
data_Hf2N2O
_symmetry_space_group_name_H-M   'P 1'
_cell_length_a   8.67821900
_cell_length_b   8.74673394
_cell_length_c   8.75444093
_cell_angle_alpha   109.67206258
_cell_angle_beta   109.33319367
_cell_angle_gamma   109.16305374
_symmetry_Int_Tables_number   1
_chemical_formula_structural   Hf2N2O
_chemical_formula_sum   'Hf16 N16 O8'
_cell_volume   513.07927371
_cell_formula_units_Z   8
loop_
 _symmetry_equiv_pos_site_id
 _symmetry_equiv_pos_as_xyz
  1  'x, y, z'
loop_
 _atom_site_type_symbol
 _atom_site_label
 _atom_site_symmetry_multiplicity
 _atom_site_fract_x
 _atom_site_fract_y
 _atom_site_fract_z
 _atom_site_occupancy
  Hf  Hf0  1  0.98933700  0.49082200  0.00072600  1
  Hf  Hf1  1  0.53439200  0.74880600  0.29171300  1
  Hf  Hf2  1  0.25068400  0.21314100  0.96533800  1
  Hf  Hf3  1  0.24641500  0.72051200  0.47174700  1
  Hf  Hf4  1  0.95249700  0.23846200  0.20990500  1
  Hf  Hf5  1  0.49778300  0.00003700  0.99940200  1
  Hf  Hf6  1  0.51066800  0.50322600  0.49944900  1
  Hf  Hf7  1  0.71914700  0.46325200  0.25960600  1
  Hf  Hf8  1  0.22070000  0.97634600  0.25995000  1
  Hf  Hf9  1  0.00782800  0.01163800  0.51111500  1
  Hf  Hf10  1  0.29289100  0.53265300  0.74708300  1
  Hf  Hf11  1  0.77339100  0.02532000  0.73693400  1
  Hf  Hf12  1  0.04263600  0.76042100  0.78669500  1
  Hf  Hf13  1  0.75223300  0.79021500  0.03298200  1
  Hf  Hf14  1  0.74808100  0.28329300  0.53522500  1
  Hf  Hf15  1  0.46592000  0.25169600  0.70759000  1
  N  N16  1  0.96724700  0.51410300  0.23682900  1
  N  N17  1  0.26084400  0.76694700  0.72810200  1
  N  N18  1  0.52460200  0.76948400  0.53935200  1
  N  N19  1  0.01305300  0.04471200  0.27165300  1
  N  N20  1  0.27322600  0.01117200  0.04617900  1
  N  N21  1  0.45506000  0.46434800  0.22455200  1
  N  N22  1  0.98722200  0.95577300  0.72781600  1
  N  N23  1  0.24149500  0.96570800  0.51135200  1
  N  N24  1  0.54785800  0.54108000  0.77410200  1
  N  N25  1  0.46803900  0.22973200  0.45596100  1
  N  N26  1  0.72742900  0.98691800  0.95362000  1
  N  N27  1  0.73503300  0.22550400  0.26892700  1
  N  N28  1  0.77741000  0.54730100  0.53611300  1
  N  N29  1  0.22638400  0.27592300  0.74041900  1
  N  N30  1  0.75690400  0.03032500  0.48210100  1
  N  N31  1  0.73168500  0.26690900  0.77966300  1
  O  O32  1  0.95494600  0.72210300  0.99077800  1
  O  O33  1  0.49137900  0.76387800  0.03763200  1
  O  O34  1  0.04885700  0.27734700  0.01299200  1
  O  O35  1  0.27221800  0.73536300  0.21432800  1
  O  O36  1  0.22197200  0.44732800  0.46613600  1
  O  O37  1  0.76665300  0.72453500  0.25443200  1
  O  O38  1  0.03920200  0.49343900  0.77114800  1
  O  O39  1  0.50668000  0.23022500  0.96035400  1
