# generated using pymatgen
data_Hf2N2O
_symmetry_space_group_name_H-M   'P 1'
_cell_length_a   8.71845700
_cell_length_b   8.72425384
_cell_length_c   8.72788604
_cell_angle_alpha   109.49837815
_cell_angle_beta   109.23486039
_cell_angle_gamma   109.48997634
_symmetry_Int_Tables_number   1
_chemical_formula_structural   Hf2N2O
_chemical_formula_sum   'Hf16 N16 O8'
_cell_volume   512.23522927
_cell_formula_units_Z   8
loop_
 _symmetry_equiv_pos_site_id
 _symmetry_equiv_pos_as_xyz
  1  'x, y, z'
loop_
 _atom_site_type_symbol
 _atom_site_label
 _atom_site_symmetry_multiplicity
 _atom_site_fract_x
 _atom_site_fract_y
 _atom_site_fract_z
 _atom_site_occupancy
  Hf  Hf0  1  0.72624400  0.96884300  0.75589900  1
  Hf  Hf1  1  0.51066800  0.50012700  0.49896800  1
  Hf  Hf2  1  0.24196700  0.77922200  0.52968000  1
  Hf  Hf3  1  0.75511500  0.72192800  0.96781100  1
  Hf  Hf4  1  0.95588100  0.25023600  0.21337900  1
  Hf  Hf5  1  0.46216100  0.24277300  0.70473000  1
  Hf  Hf6  1  0.50594000  0.99588200  0.00935500  1
  Hf  Hf7  1  0.78597100  0.53431000  0.25011200  1
  Hf  Hf8  1  0.20655700  0.47282000  0.74768200  1
  Hf  Hf9  1  0.99002900  0.00179600  0.48792300  1
  Hf  Hf10  1  0.03026100  0.74384000  0.78981300  1
  Hf  Hf11  1  0.54147100  0.75208300  0.28445300  1
  Hf  Hf12  1  0.25137100  0.29271800  0.03640400  1
  Hf  Hf13  1  0.74946500  0.21411600  0.46397000  1
  Hf  Hf14  1  0.01210500  0.50198800  0.00290200  1
  Hf  Hf15  1  0.28620600  0.03120500  0.25516000  1
  N  N16  1  0.04547900  0.53873900  0.27458000  1
  N  N17  1  0.73316800  0.96184900  0.00813100  1
  N  N18  1  0.22985600  0.98934800  0.46083900  1
  N  N19  1  0.76911800  0.73497100  0.72015600  1
  N  N20  1  0.96971700  0.22750500  0.95690100  1
  N  N21  1  0.72295900  0.27053400  0.23324400  1
  N  N22  1  0.77164500  0.00886900  0.54346300  1
  N  N23  1  0.53342000  0.48978000  0.26660300  1
  N  N24  1  0.27219300  0.72953700  0.75853900  1
  N  N25  1  0.95188700  0.46642400  0.72783900  1
  N  N26  1  0.76425500  0.77107600  0.22747200  1
  N  N27  1  0.01815400  0.23985000  0.46540400  1
  N  N28  1  0.48211100  0.95149300  0.22372500  1
  N  N29  1  0.27334300  0.54401300  0.03135800  1
  N  N30  1  0.54416300  0.27675400  0.51502500  1
  N  N31  1  0.03221100  0.77536700  0.04589400  1
  O  O32  1  0.72028100  0.44790400  0.96387600  1
  O  O33  1  0.51746700  0.05099200  0.77290000  1
  O  O34  1  0.26163200  0.03858100  0.98723200  1
  O  O35  1  0.45207700  0.72824900  0.49448700  1
  O  O36  1  0.22852600  0.26059700  0.26987200  1
  O  O37  1  0.24211000  0.22565000  0.77613600  1
  O  O38  1  0.46591700  0.50610600  0.74256200  1
  O  O39  1  0.98689600  0.76192900  0.53551700  1
