# generated using pymatgen
data_MgO
_symmetry_space_group_name_H-M   'P 1'
_cell_length_a   3.29264147
_cell_length_b   3.29264147
_cell_length_c   15.67592900
_cell_angle_alpha   90.00000000
_cell_angle_beta   90.00000000
_cell_angle_gamma   119.99998925
_symmetry_Int_Tables_number   1
_chemical_formula_structural   MgO
_chemical_formula_sum   'Mg6 O6'
_cell_volume   147.18137391
_cell_formula_units_Z   6
loop_
 _symmetry_equiv_pos_site_id
 _symmetry_equiv_pos_as_xyz
  1  'x, y, z'
loop_
 _atom_site_type_symbol
 _atom_site_label
 _atom_site_symmetry_multiplicity
 _atom_site_fract_x
 _atom_site_fract_y
 _atom_site_fract_z
 _atom_site_occupancy
  Mg  Mg0  1  0.33333300  0.66666700  0.35160600  1
  Mg  Mg1  1  0.33333300  0.66666700  0.02145600  1
  Mg  Mg2  1  0.00000000  0.00000000  0.18652700  1
  Mg  Mg3  1  0.00000000  0.00000000  0.51759000  1
  Mg  Mg4  1  0.00000000  0.00000000  0.85314800  1
  Mg  Mg5  1  0.66666700  0.33333300  0.68611000  1
  O  O6  1  0.33333300  0.66666700  0.14863200  1
  O  O7  1  0.33333300  0.66666700  0.47887200  1
  O  O8  1  0.00000000  0.00000000  0.98206500  1
  O  O9  1  0.00000000  0.00000000  0.31362200  1
  O  O10  1  0.00000000  0.00000000  0.64635700  1
  O  O11  1  0.66666700  0.33333300  0.81398600  1
