# generated using pymatgen
data_Zr2N2O
_symmetry_space_group_name_H-M   'P 1'
_cell_length_a   8.86910700
_cell_length_b   8.87278682
_cell_length_c   8.87510768
_cell_angle_alpha   109.56244872
_cell_angle_beta   109.40575066
_cell_angle_gamma   109.33690473
_symmetry_Int_Tables_number   1
_chemical_formula_structural   Zr2N2O
_chemical_formula_sum   'Zr16 N16 O8'
_cell_volume   538.35758882
_cell_formula_units_Z   8
loop_
 _symmetry_equiv_pos_site_id
 _symmetry_equiv_pos_as_xyz
  1  'x, y, z'
loop_
 _atom_site_type_symbol
 _atom_site_label
 _atom_site_symmetry_multiplicity
 _atom_site_fract_x
 _atom_site_fract_y
 _atom_site_fract_z
 _atom_site_occupancy
  Zr  Zr0  1  0.96341200  0.21362000  0.24923800  1
  Zr  Zr1  1  0.99073200  0.99682600  0.48928600  1
  Zr  Zr2  1  0.78003600  0.24187500  0.53110100  1
  Zr  Zr3  1  0.72537200  0.76003400  0.97029900  1
  Zr  Zr4  1  0.24183600  0.52798400  0.78041200  1
  Zr  Zr5  1  0.25338700  0.03318500  0.28230900  1
  Zr  Zr6  1  0.01198700  0.50948700  0.01777400  1
  Zr  Zr7  1  0.46433100  0.71423700  0.25593200  1
  Zr  Zr8  1  0.54319600  0.29324100  0.75579100  1
  Zr  Zr9  1  0.48816100  0.99575000  0.98685900  1
  Zr  Zr10  1  0.51000000  0.50585400  0.49908800  1
  Zr  Zr11  1  0.75299700  0.47038100  0.21155700  1
  Zr  Zr12  1  0.74220000  0.95363900  0.71397400  1
  Zr  Zr13  1  0.20917300  0.74446500  0.46401500  1
  Zr  Zr14  1  0.29558700  0.25678400  0.03717900  1
  Zr  Zr15  1  0.03665500  0.78743500  0.74925800  1
  N  N16  1  0.04580500  0.27505300  0.53426200  1
  N  N17  1  0.22413600  0.45197900  0.98375100  1
  N  N18  1  0.53302000  0.26044500  0.49027900  1
  N  N19  1  0.73797000  0.01479800  0.96655300  1
  N  N20  1  0.48709500  0.22321200  0.94955400  1
  N  N21  1  0.01144700  0.46387800  0.23792300  1
  N  N22  1  0.72750400  0.96851300  0.45399300  1
  N  N23  1  0.77272800  0.72480000  0.73837200  1
  N  N24  1  0.23719100  0.77291300  0.22927600  1
  N  N25  1  0.26081500  0.99238700  0.03430800  1
  N  N26  1  0.77042700  0.54195400  0.00724800  1
  N  N27  1  0.46693100  0.73796100  0.51382300  1
  N  N28  1  0.27244600  0.75786200  0.73056400  1
  N  N29  1  0.96916200  0.95523600  0.22882500  1
  N  N30  1  0.54244200  0.50718000  0.27344000  1
  N  N31  1  0.95549400  0.73120200  0.46757100  1
  O  O32  1  0.45336000  0.48875500  0.73053300  1
  O  O33  1  0.03313000  0.04406600  0.77207100  1
  O  O34  1  0.72706500  0.23715200  0.27385500  1
  O  O35  1  0.76284300  0.22945600  0.77099900  1
  O  O36  1  0.51475200  0.77153800  0.04533700  1
  O  O37  1  0.22651500  0.27502700  0.26351900  1
  O  O38  1  0.98521100  0.53226400  0.76006800  1
  O  O39  1  0.27344700  0.03757100  0.54980600  1
