# generated using pymatgen
data_Zr2N2O
_symmetry_space_group_name_H-M   'P 1'
_cell_length_a   8.85655400
_cell_length_b   8.87849062
_cell_length_c   8.88022031
_cell_angle_alpha   109.47510669
_cell_angle_beta   109.45790769
_cell_angle_gamma   109.33023906
_symmetry_Int_Tables_number   1
_chemical_formula_structural   Zr2N2O
_chemical_formula_sum   'Zr16 N16 O8'
_cell_volume   538.52849473
_cell_formula_units_Z   8
loop_
 _symmetry_equiv_pos_site_id
 _symmetry_equiv_pos_as_xyz
  1  'x, y, z'
loop_
 _atom_site_type_symbol
 _atom_site_label
 _atom_site_symmetry_multiplicity
 _atom_site_fract_x
 _atom_site_fract_y
 _atom_site_fract_z
 _atom_site_occupancy
  Zr  Zr0  1  0.01045100  0.00854700  0.51629600  1
  Zr  Zr1  1  0.24102600  0.02756300  0.28085500  1
  Zr  Zr2  1  0.03678500  0.28655700  0.25049000  1
  Zr  Zr3  1  0.46070400  0.21771100  0.75595400  1
  Zr  Zr4  1  0.78164900  0.73939100  0.03003100  1
  Zr  Zr5  1  0.28881600  0.74770100  0.53137400  1
  Zr  Zr6  1  0.48841200  0.49686100  0.48675400  1
  Zr  Zr7  1  0.50986700  0.00584700  0.00789500  1
  Zr  Zr8  1  0.73970300  0.45295400  0.21048500  1
  Zr  Zr9  1  0.00048700  0.49736500  0.98966100  1
  Zr  Zr10  1  0.25516200  0.53478200  0.78999400  1
  Zr  Zr11  1  0.72694800  0.26155800  0.47136800  1
  Zr  Zr12  1  0.21193500  0.25207500  0.96888900  1
  Zr  Zr13  1  0.96284800  0.71397300  0.74841400  1
  Zr  Zr14  1  0.53745900  0.78621500  0.24910600  1
  Zr  Zr15  1  0.75895600  0.97109500  0.71014100  1
  N  N16  1  0.04555200  0.77631000  0.03411200  1
  N  N17  1  0.22788700  0.95350000  0.48710100  1
  N  N18  1  0.46556900  0.23350300  0.00986700  1
  N  N19  1  0.72387400  0.46756800  0.95349000  1
  N  N20  1  0.25936700  0.49100200  0.53243100  1
  N  N21  1  0.73728600  0.51511900  0.46475000  1
  N  N22  1  0.23944900  0.27309400  0.72640600  1
  N  N23  1  0.77205500  0.22492900  0.23759500  1
  N  N24  1  0.27390700  0.53662900  0.05071100  1
  N  N25  1  0.00809500  0.96274000  0.73528500  1
  N  N26  1  0.53774800  0.76645600  0.99177400  1
  N  N27  1  0.96914600  0.45759200  0.72766600  1
  N  N28  1  0.27177700  0.25722400  0.23001800  1
  N  N29  1  0.77194000  0.04432300  0.50844100  1
  N  N30  1  0.48907000  0.72893500  0.45759700  1
  N  N31  1  0.94708500  0.22660700  0.96475400  1
  O  O32  1  0.51525200  0.27075300  0.54475900  1
  O  O33  1  0.72580500  0.73394100  0.77234300  1
  O  O34  1  0.03395700  0.54529600  0.27352500  1
  O  O35  1  0.98670900  0.03324700  0.26235700  1
  O  O36  1  0.22957500  0.77710400  0.76466200  1
  O  O37  1  0.76364000  0.72960300  0.27129500  1
  O  O38  1  0.54031700  0.00375700  0.77434500  1
  O  O39  1  0.45373100  0.99057600  0.22701200  1
