# generated using pymatgen
data_Zr2N2O
_symmetry_space_group_name_H-M   'P 1'
_cell_length_a   8.86383100
_cell_length_b   8.87594833
_cell_length_c   8.87635613
_cell_angle_alpha   109.36482537
_cell_angle_beta   109.40346624
_cell_angle_gamma   109.55554353
_symmetry_Int_Tables_number   1
_chemical_formula_structural   Zr2N2O
_chemical_formula_sum   'Zr16 N16 O8'
_cell_volume   538.18125823
_cell_formula_units_Z   8
loop_
 _symmetry_equiv_pos_site_id
 _symmetry_equiv_pos_as_xyz
  1  'x, y, z'
loop_
 _atom_site_type_symbol
 _atom_site_label
 _atom_site_symmetry_multiplicity
 _atom_site_fract_x
 _atom_site_fract_y
 _atom_site_fract_z
 _atom_site_occupancy
  Zr  Zr0  1  0.21192900  0.24852900  0.96187400  1
  Zr  Zr1  1  0.99723800  0.48837800  0.99114100  1
  Zr  Zr2  1  0.75397900  0.96806200  0.71543500  1
  Zr  Zr3  1  0.24253500  0.53116600  0.78065300  1
  Zr  Zr4  1  0.52649200  0.77947400  0.24844200  1
  Zr  Zr5  1  0.03078200  0.28159000  0.25251600  1
  Zr  Zr6  1  0.99846200  0.98819600  0.48951900  1
  Zr  Zr7  1  0.49707300  0.49788800  0.49853700  1
  Zr  Zr8  1  0.50920400  0.01792900  0.01277000  1
  Zr  Zr9  1  0.71349400  0.25780500  0.46556000  1
  Zr  Zr10  1  0.29767800  0.75456600  0.53911200  1
  Zr  Zr11  1  0.47077300  0.21145700  0.75326500  1
  Zr  Zr12  1  0.96095900  0.71308700  0.74273400  1
  Zr  Zr13  1  0.25860000  0.03679000  0.29725300  1
  Zr  Zr14  1  0.74447100  0.46424900  0.21020800  1
  Zr  Zr15  1  0.78508100  0.74907900  0.04224900  1
  N  N16  1  0.27394600  0.53237200  0.04165900  1
  N  N17  1  0.49289900  0.73046800  0.45789100  1
  N  N18  1  0.45120300  0.98242400  0.22402400  1
  N  N19  1  0.25993000  0.48720300  0.53351500  1
  N  N20  1  0.01108600  0.96432000  0.73744000  1
  N  N21  1  0.46330100  0.23803600  0.01236700  1
  N  N22  1  0.22402300  0.95008900  0.48740100  1
  N  N23  1  0.96824800  0.45426700  0.72776500  1
  N  N24  1  0.77262300  0.23050800  0.23829000  1
  N  N25  1  0.99197000  0.03354200  0.25994100  1
  N  N26  1  0.54461900  0.00959600  0.77469300  1
  N  N27  1  0.74056200  0.51725300  0.46999700  1
  N  N28  1  0.75919400  0.73181300  0.27256600  1
  N  N29  1  0.95487900  0.22918200  0.96935900  1
  N  N30  1  0.50721200  0.27371200  0.54275200  1
  N  N31  1  0.73062000  0.46916900  0.95638900  1
  O  O32  1  0.03964900  0.77235500  0.02835000  1
  O  O33  1  0.23620400  0.27186800  0.72660000  1
  O  O34  1  0.22826500  0.77010600  0.76489500  1
  O  O35  1  0.77644000  0.05134800  0.51790200  1
  O  O36  1  0.03679600  0.54940700  0.27301500  1
  O  O37  1  0.27703100  0.26616900  0.22817300  1
  O  O38  1  0.53423100  0.75933500  0.97998600  1
  O  O39  1  0.72632000  0.73720800  0.77376000  1
