# generated using pymatgen
data_Y2O3
_symmetry_space_group_name_H-M   'P 1'
_cell_length_a   3.50270600
_cell_length_b   8.61719900
_cell_length_c   14.50492201
_cell_angle_alpha   81.31401556
_cell_angle_beta   90.00000000
_cell_angle_gamma   90.00000000
_symmetry_Int_Tables_number   1
_chemical_formula_structural   Y2O3
_chemical_formula_sum   'Y12 O18'
_cell_volume   432.78822623
_cell_formula_units_Z   6
loop_
 _symmetry_equiv_pos_site_id
 _symmetry_equiv_pos_as_xyz
  1  'x, y, z'
loop_
 _atom_site_type_symbol
 _atom_site_label
 _atom_site_symmetry_multiplicity
 _atom_site_fract_x
 _atom_site_fract_y
 _atom_site_fract_z
 _atom_site_occupancy
  Y  Y0  1  0.25000000  0.81697800  0.00818900  1
  Y  Y1  1  0.25000000  0.45626400  0.11534900  1
  Y  Y2  1  0.75000000  0.82206300  0.21839400  1
  Y  Y3  1  0.75000000  0.18355400  0.28413100  1
  Y  Y4  1  0.25000000  0.50509800  0.39365900  1
  Y  Y5  1  0.25000000  0.86997000  0.43566700  1
  Y  Y6  1  0.75000000  0.13003000  0.56433300  1
  Y  Y7  1  0.75000000  0.49490200  0.60634100  1
  Y  Y8  1  0.25000000  0.81644600  0.71586900  1
  Y  Y9  1  0.25000000  0.17793700  0.78160600  1
  Y  Y10  1  0.75000000  0.54373600  0.88465100  1
  Y  Y11  1  0.75000000  0.18302200  0.99181100  1
  O  O12  1  0.75000000  0.62054200  0.03077200  1
  O  O13  1  0.75000000  0.28358700  0.13084300  1
  O  O14  1  0.75000000  0.93802900  0.07077600  1
  O  O15  1  0.25000000  0.68482200  0.18197200  1
  O  O16  1  0.25000000  0.34836500  0.28334600  1
  O  O17  1  0.25000000  0.98869300  0.27117900  1
  O  O18  1  0.75000000  0.03391300  0.42642900  1
  O  O19  1  0.75000000  0.70247700  0.37031300  1
  O  O20  1  0.75000000  0.37348000  0.46523300  1
  O  O21  1  0.25000000  0.62652000  0.53476700  1
  O  O22  1  0.25000000  0.29752300  0.62968700  1
  O  O23  1  0.25000000  0.96608700  0.57357100  1
  O  O24  1  0.75000000  0.01130700  0.72882100  1
  O  O25  1  0.75000000  0.65163500  0.71665400  1
  O  O26  1  0.75000000  0.31517800  0.81802800  1
  O  O27  1  0.25000000  0.06197100  0.92922400  1
  O  O28  1  0.25000000  0.71641300  0.86915700  1
  O  O29  1  0.25000000  0.37945800  0.96922800  1
