# generated using pymatgen
data_ZrO2
_symmetry_space_group_name_H-M   'P 1'
_cell_length_a   8.17203800
_cell_length_b   8.17203800
_cell_length_c   5.09730500
_cell_angle_alpha   90.00000000
_cell_angle_beta   90.00000000
_cell_angle_gamma   90.00000000
_symmetry_Int_Tables_number   1
_chemical_formula_structural   ZrO2
_chemical_formula_sum   'Zr10 O20'
_cell_volume   340.40926783
_cell_formula_units_Z   10
loop_
 _symmetry_equiv_pos_site_id
 _symmetry_equiv_pos_as_xyz
  1  'x, y, z'
loop_
 _atom_site_type_symbol
 _atom_site_label
 _atom_site_symmetry_multiplicity
 _atom_site_fract_x
 _atom_site_fract_y
 _atom_site_fract_z
 _atom_site_occupancy
  Zr  Zr0  1  0.63301900  0.32561300  0.75411000  1
  Zr  Zr1  1  0.32561300  0.36698100  0.24589000  1
  Zr  Zr2  1  0.00000000  0.50000000  0.81915800  1
  Zr  Zr3  1  0.67438700  0.63301900  0.24589000  1
  Zr  Zr4  1  0.36698100  0.67438700  0.75411000  1
  Zr  Zr5  1  0.13301900  0.82561300  0.24589000  1
  Zr  Zr6  1  0.82561300  0.86698100  0.75411000  1
  Zr  Zr7  1  0.50000000  0.00000000  0.18084200  1
  Zr  Zr8  1  0.17438700  0.13301900  0.75411000  1
  Zr  Zr9  1  0.86698100  0.17438700  0.24589000  1
  O  O10  1  0.89035100  0.29535100  0.61283000  1
  O  O11  1  0.08882200  0.29346900  0.07577100  1
  O  O12  1  0.20464900  0.39035100  0.61283000  1
  O  O13  1  0.79346900  0.41117800  0.07577100  1
  O  O14  1  0.50000000  0.50000000  0.50000000  1
  O  O15  1  0.50000000  0.50000000  0.00000000  1
  O  O16  1  0.20653100  0.58882200  0.07577100  1
  O  O17  1  0.79535100  0.60964900  0.61283000  1
  O  O18  1  0.91117800  0.70653100  0.07577100  1
  O  O19  1  0.10964900  0.70464900  0.61283000  1
  O  O20  1  0.39035100  0.79535100  0.38717000  1
  O  O21  1  0.58882200  0.79346900  0.92422900  1
  O  O22  1  0.70464900  0.89035100  0.38717000  1
  O  O23  1  0.29346900  0.91117800  0.92422900  1
  O  O24  1  0.00000000  0.00000000  0.50000000  1
  O  O25  1  0.00000000  0.00000000  0.00000000  1
  O  O26  1  0.70653100  0.08882200  0.92422900  1
  O  O27  1  0.29535100  0.10964900  0.38717000  1
  O  O28  1  0.41117800  0.20653100  0.92422900  1
  O  O29  1  0.60964900  0.20464900  0.38717000  1
