# generated using pymatgen
data_Ba2YI7
_symmetry_space_group_name_H-M   'P 1'
_cell_length_a   8.74310900
_cell_length_b   14.95875400
_cell_length_c   16.30213000
_cell_angle_alpha   90.00000000
_cell_angle_beta   90.00000000
_cell_angle_gamma   90.00000000
_symmetry_Int_Tables_number   1
_chemical_formula_structural   Ba2YI7
_chemical_formula_sum   'Ba8 Y4 I28'
_cell_volume   2132.09064685
_cell_formula_units_Z   4
loop_
 _symmetry_equiv_pos_site_id
 _symmetry_equiv_pos_as_xyz
  1  'x, y, z'
loop_
 _atom_site_type_symbol
 _atom_site_label
 _atom_site_symmetry_multiplicity
 _atom_site_fract_x
 _atom_site_fract_y
 _atom_site_fract_z
 _atom_site_occupancy
  Ba  Ba0  1  0.25000000  0.23625600  0.46146400  1
  Ba  Ba1  1  0.25000000  0.25328100  0.76050600  1
  Ba  Ba2  1  0.75000000  0.24671900  0.26050600  1
  Ba  Ba3  1  0.75000000  0.26374400  0.96146400  1
  Ba  Ba4  1  0.25000000  0.73625600  0.03853600  1
  Ba  Ba5  1  0.25000000  0.75328100  0.73949400  1
  Ba  Ba6  1  0.75000000  0.74671900  0.23949400  1
  Ba  Ba7  1  0.75000000  0.76374400  0.53853600  1
  Y  Y8  1  0.25000000  0.93760800  0.28836300  1
  Y  Y9  1  0.75000000  0.56239200  0.78836300  1
  Y  Y10  1  0.25000000  0.43760700  0.21163700  1
  Y  Y11  1  0.75000000  0.06239200  0.71163700  1
  I  I12  1  0.75000000  0.10325400  0.10508700  1
  I  I13  1  0.02266700  0.08652500  0.34308700  1
  I  I14  1  0.47733300  0.08652500  0.34308700  1
  I  I15  1  0.97381100  0.10726000  0.85237600  1
  I  I16  1  0.52618900  0.10726000  0.85237600  1
  I  I17  1  0.52937700  0.18123200  0.61578800  1
  I  I18  1  0.97062300  0.18123200  0.61578800  1
  I  I19  1  0.02937700  0.31876800  0.11578800  1
  I  I20  1  0.47062300  0.31876800  0.11578800  1
  I  I21  1  0.02618900  0.39274000  0.35237600  1
  I  I22  1  0.47381100  0.39274000  0.35237600  1
  I  I23  1  0.97733300  0.41347500  0.84308700  1
  I  I24  1  0.52266700  0.41347500  0.84308700  1
  I  I25  1  0.25000000  0.39674600  0.60508700  1
  I  I26  1  0.75000000  0.60325400  0.39491300  1
  I  I27  1  0.02266700  0.58652500  0.15691300  1
  I  I28  1  0.47733300  0.58652500  0.15691300  1
  I  I29  1  0.97381100  0.60726000  0.64762400  1
  I  I30  1  0.52618900  0.60726000  0.64762400  1
  I  I31  1  0.97062300  0.68123200  0.88421200  1
  I  I32  1  0.52937700  0.68123200  0.88421200  1
  I  I33  1  0.47062300  0.81876800  0.38421200  1
  I  I34  1  0.02937700  0.81876800  0.38421200  1
  I  I35  1  0.47381100  0.89274000  0.14762400  1
  I  I36  1  0.02618900  0.89274000  0.14762400  1
  I  I37  1  0.52266700  0.91347500  0.65691300  1
  I  I38  1  0.97733300  0.91347500  0.65691300  1
  I  I39  1  0.25000000  0.89674600  0.89491300  1
