# generated using pymatgen
data_YNb2NO5
_symmetry_space_group_name_H-M   'P 1'
_cell_length_a   5.28814300
_cell_length_b   5.93516122
_cell_length_c   15.00866264
_cell_angle_alpha   89.70719741
_cell_angle_beta   89.77478900
_cell_angle_gamma   89.75508696
_symmetry_Int_Tables_number   1
_chemical_formula_structural   YNb2NO5
_chemical_formula_sum   'Y4 Nb8 N4 O20'
_cell_volume   471.04755137
_cell_formula_units_Z   4
loop_
 _symmetry_equiv_pos_site_id
 _symmetry_equiv_pos_as_xyz
  1  'x, y, z'
loop_
 _atom_site_type_symbol
 _atom_site_label
 _atom_site_symmetry_multiplicity
 _atom_site_fract_x
 _atom_site_fract_y
 _atom_site_fract_z
 _atom_site_occupancy
  Y  Y0  1  0.25045200  0.70238000  0.00386900  1
  Y  Y1  1  0.75951700  0.29687100  0.00022700  1
  Y  Y2  1  0.76085100  0.79034600  0.49700900  1
  Y  Y3  1  0.25380200  0.20043300  0.50129400  1
  Nb  Nb4  1  0.71497600  0.82338000  0.16937100  1
  Nb  Nb5  1  0.23372300  0.17693300  0.17053900  1
  Nb  Nb6  1  0.22865900  0.68243800  0.33004500  1
  Nb  Nb7  1  0.74668100  0.32207400  0.33882200  1
  Nb  Nb8  1  0.26821900  0.67530100  0.66790400  1
  Nb  Nb9  1  0.78308900  0.30378600  0.66425500  1
  Nb  Nb10  1  0.76608400  0.82198300  0.83289700  1
  Nb  Nb11  1  0.28215300  0.19288900  0.83699100  1
  N  N12  1  0.39787800  0.87470200  0.23992300  1
  N  N13  1  0.03155200  0.41685600  0.40166800  1
  N  N14  1  0.89748700  0.10109100  0.58339000  1
  N  N15  1  0.39736600  0.39246100  0.91822800  1
  O  O16  1  0.10344100  0.39024000  0.08562700  1
  O  O17  1  0.60611400  0.61442200  0.08345700  1
  O  O18  1  0.02305300  0.92733300  0.09630400  1
  O  O19  1  0.53203500  0.09061700  0.09567800  1
  O  O20  1  0.90155800  0.13089900  0.24282300  1
  O  O21  1  0.39454200  0.37474600  0.25320600  1
  O  O22  1  0.90218600  0.63463600  0.25397600  1
  O  O23  1  0.53345500  0.58477700  0.39813000  1
  O  O24  1  0.10617400  0.89057800  0.41491100  1
  O  O25  1  0.60145500  0.10653600  0.41704000  1
  O  O26  1  0.39851400  0.87436700  0.58207400  1
  O  O27  1  0.96629500  0.58236500  0.59967100  1
  O  O28  1  0.46527300  0.41168800  0.60168500  1
  O  O29  1  0.58410800  0.64083700  0.74680900  1
  O  O30  1  0.10305300  0.37284300  0.74236300  1
  O  O31  1  0.08376200  0.85650200  0.75390900  1
  O  O32  1  0.60168900  0.12374000  0.75836700  1
  O  O33  1  0.46334500  0.91263400  0.90208300  1
  O  O34  1  0.96046100  0.08624300  0.89772600  1
  O  O35  1  0.89699600  0.62007100  0.91773000  1
