# generated using pymatgen
data_ZrO2
_symmetry_space_group_name_H-M   'P 1'
_cell_length_a   4.95715900
_cell_length_b   5.91633700
_cell_length_c   16.31673300
_cell_angle_alpha   90.00000000
_cell_angle_beta   90.00000000
_cell_angle_gamma   90.00000000
_symmetry_Int_Tables_number   1
_chemical_formula_structural   ZrO2
_chemical_formula_sum   'Zr12 O24'
_cell_volume   478.54078743
_cell_formula_units_Z   12
loop_
 _symmetry_equiv_pos_site_id
 _symmetry_equiv_pos_as_xyz
  1  'x, y, z'
loop_
 _atom_site_type_symbol
 _atom_site_label
 _atom_site_symmetry_multiplicity
 _atom_site_fract_x
 _atom_site_fract_y
 _atom_site_fract_z
 _atom_site_occupancy
  Zr  Zr0  1  0.00246200  0.34584900  0.08405300  1
  Zr  Zr1  1  0.00000000  0.01706500  0.25000000  1
  Zr  Zr2  1  0.99753800  0.34584900  0.41594700  1
  Zr  Zr3  1  0.00000000  0.98293500  0.75000000  1
  Zr  Zr4  1  0.00246200  0.65415100  0.58405300  1
  Zr  Zr5  1  0.99753800  0.65415100  0.91594700  1
  Zr  Zr6  1  0.50246200  0.15415100  0.91594700  1
  Zr  Zr7  1  0.49753800  0.15415100  0.58405300  1
  Zr  Zr8  1  0.50000000  0.48293500  0.75000000  1
  Zr  Zr9  1  0.50246200  0.84584900  0.41594700  1
  Zr  Zr10  1  0.49753800  0.84584900  0.08405300  1
  Zr  Zr11  1  0.50000000  0.51706500  0.25000000  1
  O  O12  1  0.20278300  0.62880500  0.03021800  1
  O  O13  1  0.20278300  0.37119500  0.53021800  1
  O  O14  1  0.28080000  0.19351000  0.69593400  1
  O  O15  1  0.28080000  0.80649000  0.19593400  1
  O  O16  1  0.20929700  0.06760100  0.36264900  1
  O  O17  1  0.20929700  0.93239900  0.86264900  1
  O  O18  1  0.29070300  0.56760100  0.36264900  1
  O  O19  1  0.29070300  0.43239900  0.86264900  1
  O  O20  1  0.21920000  0.30649000  0.19593400  1
  O  O21  1  0.21920000  0.69351000  0.69593400  1
  O  O22  1  0.29721700  0.12880500  0.03021800  1
  O  O23  1  0.29721700  0.87119500  0.53021800  1
  O  O24  1  0.70278300  0.12880500  0.46978200  1
  O  O25  1  0.70278300  0.87119500  0.96978200  1
  O  O26  1  0.78080000  0.30649000  0.30406600  1
  O  O27  1  0.78080000  0.69351000  0.80406600  1
  O  O28  1  0.70929700  0.43239900  0.63735100  1
  O  O29  1  0.70929700  0.56760100  0.13735100  1
  O  O30  1  0.79070300  0.06760100  0.13735100  1
  O  O31  1  0.79070300  0.93239900  0.63735100  1
  O  O32  1  0.71920000  0.19351000  0.80406600  1
  O  O33  1  0.71920000  0.80649000  0.30406600  1
  O  O34  1  0.79721700  0.37119500  0.96978200  1
  O  O35  1  0.79721700  0.62880500  0.46978200  1
