# generated using pymatgen
data_SrTiO3
_symmetry_space_group_name_H-M   'P 1'
_cell_length_a   5.62885438
_cell_length_b   5.62885438
_cell_length_c   13.88603800
_cell_angle_alpha   90.00000000
_cell_angle_beta   90.00000000
_cell_angle_gamma   120.00000450
_symmetry_Int_Tables_number   1
_chemical_formula_structural   SrTiO3
_chemical_formula_sum   'Sr6 Ti6 O18'
_cell_volume   381.02106693
_cell_formula_units_Z   6
loop_
 _symmetry_equiv_pos_site_id
 _symmetry_equiv_pos_as_xyz
  1  'x, y, z'
loop_
 _atom_site_type_symbol
 _atom_site_label
 _atom_site_symmetry_multiplicity
 _atom_site_fract_x
 _atom_site_fract_y
 _atom_site_fract_z
 _atom_site_occupancy
  Sr  Sr0  1  0.33333300  0.66666700  0.10071900  1
  Sr  Sr1  1  0.00000000  0.00000000  0.25000000  1
  Sr  Sr2  1  0.00000000  0.00000000  0.75000000  1
  Sr  Sr3  1  0.33333300  0.66666700  0.39928100  1
  Sr  Sr4  1  0.66666700  0.33333300  0.60071900  1
  Sr  Sr5  1  0.66666700  0.33333300  0.89928100  1
  Ti  Ti6  1  0.33333300  0.66666700  0.84606000  1
  Ti  Ti7  1  0.00000000  0.00000000  0.00000000  1
  Ti  Ti8  1  0.00000000  0.00000000  0.50000000  1
  Ti  Ti9  1  0.33333300  0.66666700  0.65394000  1
  Ti  Ti10  1  0.66666700  0.33333300  0.15394000  1
  Ti  Ti11  1  0.66666700  0.33333300  0.34606000  1
  O  O12  1  0.16467500  0.83532500  0.91843500  1
  O  O13  1  0.16467500  0.83532500  0.58156500  1
  O  O14  1  0.02187100  0.51093500  0.75000000  1
  O  O15  1  0.48906500  0.97812900  0.75000000  1
  O  O16  1  0.16467500  0.32935000  0.91843500  1
  O  O17  1  0.16467500  0.32935000  0.58156500  1
  O  O18  1  0.48906500  0.51093500  0.75000000  1
  O  O19  1  0.32935000  0.16467500  0.08156500  1
  O  O20  1  0.32935000  0.16467500  0.41843500  1
  O  O21  1  0.67065000  0.83532500  0.58156500  1
  O  O22  1  0.67065000  0.83532500  0.91843500  1
  O  O23  1  0.51093500  0.48906500  0.25000000  1
  O  O24  1  0.51093500  0.02187100  0.25000000  1
  O  O25  1  0.83532500  0.67065000  0.41843500  1
  O  O26  1  0.83532500  0.67065000  0.08156500  1
  O  O27  1  0.97812900  0.48906500  0.25000000  1
  O  O28  1  0.83532500  0.16467500  0.41843500  1
  O  O29  1  0.83532500  0.16467500  0.08156500  1
