# generated using pymatgen
data_BaSiO3
_symmetry_space_group_name_H-M   'P 1'
_cell_length_a   6.39884900
_cell_length_b   7.92886500
_cell_length_c   14.35410530
_cell_angle_alpha   62.05222586
_cell_angle_beta   90.00000000
_cell_angle_gamma   90.00000000
_symmetry_Int_Tables_number   1
_chemical_formula_structural   BaSiO3
_chemical_formula_sum   'Ba8 Si8 O24'
_cell_volume   643.33057737
_cell_formula_units_Z   8
loop_
 _symmetry_equiv_pos_site_id
 _symmetry_equiv_pos_as_xyz
  1  'x, y, z'
loop_
 _atom_site_type_symbol
 _atom_site_label
 _atom_site_symmetry_multiplicity
 _atom_site_fract_x
 _atom_site_fract_y
 _atom_site_fract_z
 _atom_site_occupancy
  Ba  Ba0  1  0.89828300  0.78902700  0.62501900  1
  Ba  Ba1  1  0.59296900  0.25803300  0.16470100  1
  Ba  Ba2  1  0.39828300  0.21097300  0.87498100  1
  Ba  Ba3  1  0.09296900  0.74196700  0.33529900  1
  Ba  Ba4  1  0.90703100  0.25803300  0.66470100  1
  Ba  Ba5  1  0.60171700  0.78902700  0.12501900  1
  Ba  Ba6  1  0.40703100  0.74196700  0.83529900  1
  Ba  Ba7  1  0.10171700  0.21097300  0.37498100  1
  Si  Si8  1  0.85133700  0.45160600  0.88716400  1
  Si  Si9  1  0.08658200  0.17154500  0.08980700  1
  Si  Si10  1  0.35133700  0.54839400  0.61283600  1
  Si  Si11  1  0.58658200  0.82845500  0.41019300  1
  Si  Si12  1  0.41341800  0.17154500  0.58980700  1
  Si  Si13  1  0.64866300  0.45160600  0.38716400  1
  Si  Si14  1  0.91341800  0.82845500  0.91019300  1
  Si  Si15  1  0.14866300  0.54839400  0.11283600  1
  O  O16  1  0.09059100  0.31591600  0.14845300  1
  O  O17  1  0.63534800  0.39773800  0.95257300  1
  O  O18  1  0.33836200  0.56180600  0.72146100  1
  O  O19  1  0.55265200  0.67711600  0.53919500  1
  O  O20  1  0.39317900  0.97250900  0.35513300  1
  O  O21  1  0.05265200  0.32288400  0.96080500  1
  O  O22  1  0.81220200  0.92822100  0.40121400  1
  O  O23  1  0.83836200  0.43819400  0.77853900  1
  O  O24  1  0.13534800  0.60226200  0.54742700  1
  O  O25  1  0.31220200  0.07177900  0.09878600  1
  O  O26  1  0.89317900  0.02749100  0.14486700  1
  O  O27  1  0.40940900  0.31591600  0.64845300  1
  O  O28  1  0.59059100  0.68408400  0.35154700  1
  O  O29  1  0.10682100  0.97250900  0.85513300  1
  O  O30  1  0.68779800  0.92822100  0.90121400  1
  O  O31  1  0.86465200  0.39773800  0.45257300  1
  O  O32  1  0.16163800  0.56180600  0.22146100  1
  O  O33  1  0.18779800  0.07177900  0.59878600  1
  O  O34  1  0.94734800  0.67711600  0.03919500  1
  O  O35  1  0.60682100  0.02749100  0.64486700  1
  O  O36  1  0.44734800  0.32288400  0.46080500  1
  O  O37  1  0.66163800  0.43819400  0.27853900  1
  O  O38  1  0.36465200  0.60226200  0.04742700  1
  O  O39  1  0.90940900  0.68408400  0.85154700  1
