# generated using pymatgen
data_SiSnO3
_symmetry_space_group_name_H-M   'P 1'
_cell_length_a   7.04916900
_cell_length_b   11.39476300
_cell_length_c   13.09830116
_cell_angle_alpha   60.05563922
_cell_angle_beta   90.00000000
_cell_angle_gamma   90.00000000
_symmetry_Int_Tables_number   1
_chemical_formula_structural   SiSnO3
_chemical_formula_sum   'Si12 Sn12 O36'
_cell_volume   911.65819511
_cell_formula_units_Z   12
loop_
 _symmetry_equiv_pos_site_id
 _symmetry_equiv_pos_as_xyz
  1  'x, y, z'
loop_
 _atom_site_type_symbol
 _atom_site_label
 _atom_site_symmetry_multiplicity
 _atom_site_fract_x
 _atom_site_fract_y
 _atom_site_fract_z
 _atom_site_occupancy
  Si  Si0  1  0.59429100  0.13850200  0.89286500  1
  Si  Si1  1  0.87538100  0.46203400  0.65496200  1
  Si  Si2  1  0.81476700  0.74861400  0.45995500  1
  Si  Si3  1  0.87538100  0.53796600  0.84503800  1
  Si  Si4  1  0.59429100  0.86149800  0.60713500  1
  Si  Si5  1  0.81476700  0.25138600  0.04004500  1
  Si  Si6  1  0.18523300  0.74861400  0.95995500  1
  Si  Si7  1  0.40570900  0.13850200  0.39286500  1
  Si  Si8  1  0.12461900  0.46203400  0.15496200  1
  Si  Si9  1  0.18523300  0.25138600  0.54004500  1
  Si  Si10  1  0.12461900  0.53796600  0.34503800  1
  Si  Si11  1  0.40570900  0.86149800  0.10713500  1
  Sn  Sn12  1  0.38676500  0.42579500  0.66325800  1
  Sn  Sn13  1  0.94801700  0.86621100  0.18023400  1
  Sn  Sn14  1  0.30926600  0.79004700  0.39737600  1
  Sn  Sn15  1  0.38676500  0.57420500  0.83674200  1
  Sn  Sn16  1  0.05198300  0.86621100  0.68023400  1
  Sn  Sn17  1  0.30926600  0.20995300  0.10262400  1
  Sn  Sn18  1  0.69073400  0.79004700  0.89737600  1
  Sn  Sn19  1  0.94801700  0.13378900  0.31976600  1
  Sn  Sn20  1  0.61323500  0.42579500  0.16325800  1
  Sn  Sn21  1  0.69073400  0.20995300  0.60262400  1
  Sn  Sn22  1  0.05198300  0.13378900  0.81976600  1
  Sn  Sn23  1  0.61323500  0.57420500  0.33674200  1
  O  O24  1  0.42510400  0.24609100  0.82651600  1
  O  O25  1  0.75624200  0.18692900  0.95639100  1
  O  O26  1  0.70574100  0.39336800  0.61635400  1
  O  O27  1  0.05715300  0.36055100  0.71073000  1
  O  O28  1  0.94022200  0.60967600  0.54211400  1
  O  O29  1  0.77744200  0.50000000  0.75000000  1
  O  O30  1  0.94022200  0.39032400  0.95788600  1
  O  O31  1  0.62348000  0.71419800  0.40827400  1
  O  O32  1  0.50000000  0.00000000  0.00000000  1
  O  O33  1  0.27753300  0.89053600  0.19896900  1
  O  O34  1  0.95312100  0.85397200  0.35234300  1
  O  O35  1  0.05715300  0.63944900  0.78927000  1
  O  O36  1  0.70574100  0.60663200  0.88364600  1
  O  O37  1  0.75624200  0.81307100  0.54360900  1
  O  O38  1  0.42510400  0.75390900  0.67348400  1
  O  O39  1  0.95312100  0.14602800  0.14765700  1
  O  O40  1  0.37652000  0.71419800  0.90827400  1
  O  O41  1  0.27753300  0.10946400  0.30103100  1
  O  O42  1  0.50000000  0.00000000  0.50000000  1
  O  O43  1  0.72246700  0.89053600  0.69896900  1
  O  O44  1  0.62348000  0.28580200  0.09172600  1
  O  O45  1  0.04687900  0.85397200  0.85234300  1
  O  O46  1  0.57489600  0.24609100  0.32651600  1
  O  O47  1  0.24375800  0.18692900  0.45639100  1
  O  O48  1  0.29425900  0.39336800  0.11635400  1
  O  O49  1  0.94284700  0.36055100  0.21073000  1
  O  O50  1  0.04687900  0.14602800  0.64765700  1
  O  O51  1  0.72246700  0.10946400  0.80103100  1
  O  O52  1  0.37652000  0.28580200  0.59172600  1
  O  O53  1  0.05977800  0.60967600  0.04211400  1
  O  O54  1  0.22255800  0.50000000  0.25000000  1
  O  O55  1  0.05977800  0.39032400  0.45788600  1
  O  O56  1  0.94284700  0.63944900  0.28927000  1
  O  O57  1  0.29425900  0.60663200  0.38364600  1
  O  O58  1  0.24375800  0.81307100  0.04360900  1
  O  O59  1  0.57489600  0.75390900  0.17348400  1
