# generated using pymatgen
data_Hf2N2O
_symmetry_space_group_name_H-M   'P 1'
_cell_length_a   8.71071900
_cell_length_b   8.72468343
_cell_length_c   8.72992547
_cell_angle_alpha   109.27055505
_cell_angle_beta   109.55878118
_cell_angle_gamma   109.37628277
_symmetry_Int_Tables_number   1
_chemical_formula_structural   Hf2N2O
_chemical_formula_sum   'Hf16 N16 O8'
_cell_volume   512.03575592
_cell_formula_units_Z   8
loop_
 _symmetry_equiv_pos_site_id
 _symmetry_equiv_pos_as_xyz
  1  'x, y, z'
loop_
 _atom_site_type_symbol
 _atom_site_label
 _atom_site_symmetry_multiplicity
 _atom_site_fract_x
 _atom_site_fract_y
 _atom_site_fract_z
 _atom_site_occupancy
  Hf  Hf0  1  0.97090700  0.74875600  0.72554900  1
  Hf  Hf1  1  0.50124700  0.50879200  0.51075800  1
  Hf  Hf2  1  0.78123400  0.53167300  0.24418600  1
  Hf  Hf3  1  0.71265900  0.96341700  0.74868000  1
  Hf  Hf4  1  0.25948800  0.21791000  0.96124100  1
  Hf  Hf5  1  0.24968100  0.70632100  0.46366400  1
  Hf  Hf6  1  0.99592300  0.00785600  0.49736100  1
  Hf  Hf7  1  0.53513900  0.25133000  0.78392200  1
  Hf  Hf8  1  0.47269300  0.74746600  0.21390600  1
  Hf  Hf9  1  0.00287100  0.48892700  0.99256400  1
  Hf  Hf10  1  0.74176200  0.78915500  0.02876300  1
  Hf  Hf11  1  0.74856900  0.28200400  0.53994700  1
  Hf  Hf12  1  0.29355200  0.03857000  0.25230700  1
  Hf  Hf13  1  0.21458400  0.46298600  0.75026200  1
  Hf  Hf14  1  0.50221700  0.00037900  0.01208400  1
  Hf  Hf15  1  0.03066600  0.25685900  0.28674700  1
  N  N16  1  0.53821000  0.27634100  0.04719800  1
  N  N17  1  0.99039800  0.46220100  0.23024000  1
  N  N18  1  0.50732200  0.74100300  0.46670200  1
  N  N19  1  0.74220800  0.72384600  0.77197500  1
  N  N20  1  0.22537700  0.95976200  0.96760800  1
  N  N21  1  0.26773100  0.22967100  0.72360300  1
  N  N22  1  0.00874600  0.54292400  0.77149400  1
  N  N23  1  0.48925100  0.26506700  0.53354200  1
  N  N24  1  0.73238200  0.76002600  0.27109300  1
  N  N25  1  0.46549300  0.72660300  0.94987400  1
  N  N26  1  0.77385900  0.22602200  0.76473900  1
  N  N27  1  0.23909600  0.46417500  0.01692200  1
  N  N28  1  0.95002300  0.22207600  0.48243000  1
  N  N29  1  0.54262300  0.03064100  0.27244600  1
  N  N30  1  0.27392900  0.51220400  0.54460500  1
  N  N31  1  0.77367800  0.04511600  0.03286400  1
  O  O32  1  0.44971800  0.96613700  0.72367300  1
  O  O33  1  0.05049300  0.77565300  0.52082100  1
  O  O34  1  0.04078900  0.99092500  0.26736300  1
  O  O35  1  0.72933900  0.49207800  0.45164400  1
  O  O36  1  0.25832100  0.26943900  0.22779000  1
  O  O37  1  0.95887100  0.00686700  0.72872400  1
  O  O38  1  0.21909500  0.77548900  0.23574700  1
  O  O39  1  0.75985800  0.53333100  0.98496200  1
