# generated using pymatgen
data_Zr2N2O
_symmetry_space_group_name_H-M   'P 1'
_cell_length_a   5.50995700
_cell_length_b   7.07881609
_cell_length_c   9.88544609
_cell_angle_alpha   103.38253912
_cell_angle_beta   89.97325738
_cell_angle_gamma   90.16705184
_symmetry_Int_Tables_number   1
_chemical_formula_structural   Zr2N2O
_chemical_formula_sum   'Zr12 N12 O6'
_cell_volume   375.10042592
_cell_formula_units_Z   6
loop_
 _symmetry_equiv_pos_site_id
 _symmetry_equiv_pos_as_xyz
  1  'x, y, z'
loop_
 _atom_site_type_symbol
 _atom_site_label
 _atom_site_symmetry_multiplicity
 _atom_site_fract_x
 _atom_site_fract_y
 _atom_site_fract_z
 _atom_site_occupancy
  Zr  Zr0  1  0.70925800  0.84697200  0.91323000  1
  Zr  Zr1  1  0.70337000  0.84527900  0.58033400  1
  Zr  Zr2  1  0.69609300  0.84692000  0.24697900  1
  Zr  Zr3  1  0.21028600  0.65858800  0.88157900  1
  Zr  Zr4  1  0.19577000  0.65238100  0.21406900  1
  Zr  Zr5  1  0.20052200  0.65396600  0.54885000  1
  Zr  Zr6  1  0.76899400  0.39190800  0.67104300  1
  Zr  Zr7  1  0.79571000  0.38344700  0.33729700  1
  Zr  Zr8  1  0.76192800  0.39768300  0.00639900  1
  Zr  Zr9  1  0.30727400  0.12753100  0.79358600  1
  Zr  Zr10  1  0.28359600  0.10771300  0.45671900  1
  Zr  Zr11  1  0.28456500  0.11065200  0.12367600  1
  N  N12  1  0.42342600  0.80937200  0.07400100  1
  N  N13  1  0.42914900  0.81969200  0.74322300  1
  N  N14  1  0.42254600  0.80723300  0.40625300  1
  N  N15  1  0.92743100  0.68849500  0.72148700  1
  N  N16  1  0.92366900  0.69206900  0.05294800  1
  N  N17  1  0.92479000  0.68866400  0.38799700  1
  N  N18  1  0.52693200  0.48083900  0.85070900  1
  N  N19  1  0.04279200  0.36183900  0.50104400  1
  N  N20  1  0.03898100  0.36248800  0.16388400  1
  N  N21  1  0.54635800  0.13433800  0.96613700  1
  N  N22  1  0.54410600  0.13295300  0.62210200  1
  N  N23  1  0.53817900  0.13794600  0.29535000  1
  O  O24  1  0.55524000  0.50947000  0.52540600  1
  O  O25  1  0.55110200  0.50673700  0.19151300  1
  O  O26  1  0.02649900  0.35735500  0.83335900  1
  O  O27  1  0.05987700  0.99685300  0.93492300  1
  O  O28  1  0.04760300  0.99396900  0.27093900  1
  O  O29  1  0.05395200  0.99665100  0.60873500  1
