# generated using pymatgen
data_YNb2NO5
_symmetry_space_group_name_H-M   'P 1'
_cell_length_a   5.30567700
_cell_length_b   5.79674733
_cell_length_c   15.02838278
_cell_angle_alpha   89.72648487
_cell_angle_beta   89.72334452
_cell_angle_gamma   89.72591215
_symmetry_Int_Tables_number   1
_chemical_formula_structural   YNb2NO5
_chemical_formula_sum   'Y4 Nb8 N4 O20'
_cell_volume   462.19207345
_cell_formula_units_Z   4
loop_
 _symmetry_equiv_pos_site_id
 _symmetry_equiv_pos_as_xyz
  1  'x, y, z'
loop_
 _atom_site_type_symbol
 _atom_site_label
 _atom_site_symmetry_multiplicity
 _atom_site_fract_x
 _atom_site_fract_y
 _atom_site_fract_z
 _atom_site_occupancy
  Y  Y0  1  0.25223200  0.72627500  0.00203700  1
  Y  Y1  1  0.75630800  0.28642500  0.00225200  1
  Y  Y2  1  0.75453800  0.76008100  0.49936600  1
  Y  Y3  1  0.25589400  0.21198400  0.50130900  1
  Nb  Nb4  1  0.68930100  0.82392800  0.17028700  1
  Nb  Nb5  1  0.20549700  0.18609200  0.16910600  1
  Nb  Nb6  1  0.20208700  0.68675300  0.33085600  1
  Nb  Nb7  1  0.72041800  0.31670800  0.34098500  1
  Nb  Nb8  1  0.29049100  0.68422500  0.67259500  1
  Nb  Nb9  1  0.80425300  0.30269700  0.66506400  1
  Nb  Nb10  1  0.80432900  0.81461400  0.82987900  1
  Nb  Nb11  1  0.30113800  0.19196100  0.83966700  1
  N  N12  1  0.37167100  0.87505000  0.23945900  1
  N  N13  1  0.99502500  0.42503000  0.40640800  1
  N  N14  1  0.10560000  0.86677900  0.75288600  1
  N  N15  1  0.40892500  0.40651400  0.91791600  1
  O  O16  1  0.09041000  0.41408400  0.08736100  1
  O  O17  1  0.59137800  0.60462200  0.08582900  1
  O  O18  1  0.98285600  0.94720900  0.09222400  1
  O  O19  1  0.48901200  0.08097700  0.09086300  1
  O  O20  1  0.87345700  0.13550100  0.24120800  1
  O  O21  1  0.36782600  0.37400700  0.25619900  1
  O  O22  1  0.87604900  0.63816300  0.25666800  1
  O  O23  1  0.49625800  0.57041300  0.40315400  1
  O  O24  1  0.08782100  0.90210300  0.41570000  1
  O  O25  1  0.58934500  0.08839800  0.41841700  1
  O  O26  1  0.41371500  0.88796900  0.58219800  1
  O  O27  1  0.91562700  0.08176900  0.58366800  1
  O  O28  1  0.01104700  0.55806100  0.59404000  1
  O  O29  1  0.52285600  0.41409500  0.59229500  1
  O  O30  1  0.61936700  0.62637500  0.74152900  1
  O  O31  1  0.12565900  0.36851200  0.73884000  1
  O  O32  1  0.62805400  0.13279600  0.75708100  1
  O  O33  1  0.49657400  0.92387700  0.90206600  1
  O  O34  1  0.99027700  0.08010500  0.90389600  1
  O  O35  1  0.91470400  0.60584500  0.91668700  1
