# generated using pymatgen
data_Zr2N2O
_symmetry_space_group_name_H-M   'P 1'
_cell_length_a   8.86938400
_cell_length_b   8.87429287
_cell_length_c   8.87997987
_cell_angle_alpha   109.40894477
_cell_angle_beta   109.41136156
_cell_angle_gamma   109.52944873
_symmetry_Int_Tables_number   1
_chemical_formula_structural   Zr2N2O
_chemical_formula_sum   'Zr16 N16 O8'
_cell_volume   538.46674748
_cell_formula_units_Z   8
loop_
 _symmetry_equiv_pos_site_id
 _symmetry_equiv_pos_as_xyz
  1  'x, y, z'
loop_
 _atom_site_type_symbol
 _atom_site_label
 _atom_site_symmetry_multiplicity
 _atom_site_fract_x
 _atom_site_fract_y
 _atom_site_fract_z
 _atom_site_occupancy
  Zr  Zr0  1  0.51224600  0.49974400  0.50099600  1
  Zr  Zr1  1  0.20605000  0.74957200  0.46464100  1
  Zr  Zr2  1  0.96320900  0.21471400  0.24943800  1
  Zr  Zr3  1  0.47600800  0.71902600  0.25113200  1
  Zr  Zr4  1  0.29498800  0.24638400  0.03510900  1
  Zr  Zr5  1  0.00120700  0.99936200  0.48926800  1
  Zr  Zr6  1  0.50146500  0.99998900  0.00051300  1
  Zr  Zr7  1  0.98298600  0.49294600  0.99532200  1
  Zr  Zr8  1  0.24049600  0.53129100  0.78566600  1
  Zr  Zr9  1  0.74814300  0.96414700  0.71388300  1
  Zr  Zr10  1  0.75303300  0.47104100  0.21270100  1
  Zr  Zr11  1  0.25269300  0.03547600  0.28587900  1
  Zr  Zr12  1  0.71757000  0.75913800  0.96899800  1
  Zr  Zr13  1  0.02745500  0.78094000  0.75140400  1
  Zr  Zr14  1  0.53586300  0.28266600  0.74787600  1
  Zr  Zr15  1  0.78796800  0.24971700  0.54250300  1
  N  N16  1  0.76861900  0.72789900  0.73428600  1
  N  N17  1  0.53996100  0.51176400  0.27261400  1
  N  N18  1  0.50489300  0.76783400  0.04050400  1
  N  N19  1  0.95663300  0.72866500  0.47284600  1
  N  N20  1  0.01285600  0.46584900  0.23836600  1
  N  N21  1  0.73707100  0.01488200  0.96656600  1
  N  N22  1  0.99640600  0.53848600  0.76757800  1
  N  N23  1  0.76152100  0.22921400  0.77320900  1
  N  N24  1  0.96865400  0.95585900  0.22701300  1
  N  N25  1  0.25959100  0.98747900  0.03256400  1
  N  N26  1  0.48768700  0.22642800  0.95545600  1
  N  N27  1  0.72674600  0.96388100  0.45727600  1
  N  N28  1  0.77259800  0.54651800  0.01093800  1
  N  N29  1  0.04796700  0.27453800  0.53438100  1
  N  N30  1  0.27323600  0.03024300  0.54246800  1
  N  N31  1  0.53585900  0.26628000  0.48593000  1
  O  O32  1  0.27822200  0.76076700  0.72542700  1
  O  O33  1  0.22798200  0.27230400  0.26450400  1
  O  O34  1  0.46186200  0.73874000  0.51452200  1
  O  O35  1  0.24452500  0.77141400  0.23044300  1
  O  O36  1  0.22370600  0.44840100  0.98493000  1
  O  O37  1  0.45248200  0.48949200  0.72359800  1
  O  O38  1  0.72506600  0.23348900  0.27035100  1
  O  O39  1  0.03448300  0.05342400  0.77890200  1
