# generated using pymatgen
data_ZrO2
_symmetry_space_group_name_H-M   'P 1'
_cell_length_a   5.28844800
_cell_length_b   5.37288300
_cell_length_c   10.34124000
_cell_angle_alpha   90.00000000
_cell_angle_beta   90.00000000
_cell_angle_gamma   90.00000000
_symmetry_Int_Tables_number   1
_chemical_formula_structural   ZrO2
_chemical_formula_sum   'Zr8 O16'
_cell_volume   293.83818938
_cell_formula_units_Z   8
loop_
 _symmetry_equiv_pos_site_id
 _symmetry_equiv_pos_as_xyz
  1  'x, y, z'
loop_
 _atom_site_type_symbol
 _atom_site_label
 _atom_site_symmetry_multiplicity
 _atom_site_fract_x
 _atom_site_fract_y
 _atom_site_fract_z
 _atom_site_occupancy
  Zr  Zr0  1  0.54134800  0.84074100  0.13819700  1
  Zr  Zr1  1  0.95865200  0.34074100  0.13819700  1
  Zr  Zr2  1  0.45865200  0.34074100  0.36180300  1
  Zr  Zr3  1  0.04134800  0.84074100  0.36180300  1
  Zr  Zr4  1  0.95865200  0.15925900  0.63819700  1
  Zr  Zr5  1  0.54134800  0.65925900  0.63819700  1
  Zr  Zr6  1  0.45865200  0.15925900  0.86180300  1
  Zr  Zr7  1  0.04134800  0.65925900  0.86180300  1
  O  O8  1  0.83536600  0.67021300  0.03380300  1
  O  O9  1  0.66463400  0.17021300  0.03380300  1
  O  O10  1  0.25070300  0.08661900  0.22535400  1
  O  O11  1  0.24929700  0.58661900  0.22535400  1
  O  O12  1  0.75070300  0.08661900  0.27464600  1
  O  O13  1  0.74929700  0.58661900  0.27464600  1
  O  O14  1  0.16463400  0.17021300  0.46619700  1
  O  O15  1  0.33536600  0.67021300  0.46619700  1
  O  O16  1  0.66463400  0.32978700  0.53380300  1
  O  O17  1  0.83536600  0.82978700  0.53380300  1
  O  O18  1  0.25070300  0.41338100  0.72535400  1
  O  O19  1  0.24929700  0.91338100  0.72535400  1
  O  O20  1  0.75070300  0.41338100  0.77464600  1
  O  O21  1  0.74929700  0.91338100  0.77464600  1
  O  O22  1  0.16463400  0.32978700  0.96619700  1
  O  O23  1  0.33536600  0.82978700  0.96619700  1
