# generated using pymatgen
data_ZrO2
_symmetry_space_group_name_H-M   'P 1'
_cell_length_a   5.66534800
_cell_length_b   5.86500600
_cell_length_c   10.05058200
_cell_angle_alpha   90.00000000
_cell_angle_beta   90.00000000
_cell_angle_gamma   90.00000000
_symmetry_Int_Tables_number   1
_chemical_formula_structural   ZrO2
_chemical_formula_sum   'Zr8 O16'
_cell_volume   333.95370341
_cell_formula_units_Z   8
loop_
 _symmetry_equiv_pos_site_id
 _symmetry_equiv_pos_as_xyz
  1  'x, y, z'
loop_
 _atom_site_type_symbol
 _atom_site_label
 _atom_site_symmetry_multiplicity
 _atom_site_fract_x
 _atom_site_fract_y
 _atom_site_fract_z
 _atom_site_occupancy
  Zr  Zr0  1  0.14263800  0.90133700  0.13001800  1
  Zr  Zr1  1  0.64263800  0.59866300  0.13001800  1
  Zr  Zr2  1  0.14263800  0.40133700  0.36998200  1
  Zr  Zr3  1  0.64263800  0.09866300  0.36998200  1
  Zr  Zr4  1  0.35736200  0.90133700  0.63001800  1
  Zr  Zr5  1  0.85736200  0.59866300  0.63001800  1
  Zr  Zr6  1  0.35736200  0.40133700  0.86998200  1
  Zr  Zr7  1  0.85736200  0.09866300  0.86998200  1
  O  O8  1  0.82563500  0.84971500  0.01496900  1
  O  O9  1  0.32563500  0.65028500  0.01496900  1
  O  O10  1  0.47064800  0.88142600  0.23109100  1
  O  O11  1  0.97064800  0.61857400  0.23109100  1
  O  O12  1  0.47064800  0.38142600  0.26890900  1
  O  O13  1  0.97064800  0.11857400  0.26890900  1
  O  O14  1  0.32563500  0.15028500  0.48503100  1
  O  O15  1  0.82563500  0.34971500  0.48503100  1
  O  O16  1  0.67436500  0.84971500  0.51496900  1
  O  O17  1  0.17436500  0.65028500  0.51496900  1
  O  O18  1  0.02935200  0.88142600  0.73109100  1
  O  O19  1  0.52935200  0.61857400  0.73109100  1
  O  O20  1  0.02935200  0.38142600  0.76890900  1
  O  O21  1  0.52935200  0.11857400  0.76890900  1
  O  O22  1  0.67436500  0.34971500  0.98503100  1
  O  O23  1  0.17436500  0.15028500  0.98503100  1
