# generated using pymatgen
data_LaTa2NO5
_symmetry_space_group_name_H-M   'P 1'
_cell_length_a   5.52936300
_cell_length_b   7.74117530
_cell_length_c   11.30557777
_cell_angle_alpha   89.96804612
_cell_angle_beta   89.99773971
_cell_angle_gamma   89.98393889
_symmetry_Int_Tables_number   1
_chemical_formula_structural   LaTa2NO5
_chemical_formula_sum   'La4 Ta8 N4 O20'
_cell_volume   483.92123663
_cell_formula_units_Z   4
loop_
 _symmetry_equiv_pos_site_id
 _symmetry_equiv_pos_as_xyz
  1  'x, y, z'
loop_
 _atom_site_type_symbol
 _atom_site_label
 _atom_site_symmetry_multiplicity
 _atom_site_fract_x
 _atom_site_fract_y
 _atom_site_fract_z
 _atom_site_occupancy
  La  La0  1  0.55334100  0.75241100  0.96062400  1
  La  La1  1  0.04528600  0.24763200  0.54290500  1
  La  La2  1  0.95193500  0.75422800  0.46166100  1
  La  La3  1  0.44834800  0.24757200  0.03708600  1
  Ta  Ta4  1  0.03747700  0.99773000  0.85846200  1
  Ta  Ta5  1  0.03906400  0.50425700  0.85655500  1
  Ta  Ta6  1  0.54169500  0.00290200  0.64285300  1
  Ta  Ta7  1  0.53890700  0.49645100  0.64329700  1
  Ta  Ta8  1  0.44670900  0.00089400  0.35355100  1
  Ta  Ta9  1  0.45742900  0.49643500  0.35723000  1
  Ta  Ta10  1  0.96512100  0.49291800  0.14159800  1
  Ta  Ta11  1  0.96466800  0.99601800  0.14886200  1
  N  N12  1  0.95374800  0.74966400  0.85410000  1
  N  N13  1  0.45190600  0.25095200  0.64306700  1
  N  N14  1  0.12982800  0.94113400  0.29253000  1
  N  N15  1  0.04445100  0.25162600  0.14503400  1
  O  O16  1  0.76644200  0.03686600  0.97177800  1
  O  O17  1  0.77192600  0.46466100  0.97657000  1
  O  O18  1  0.15279800  0.25053400  0.87800100  1
  O  O19  1  0.37201300  0.55567200  0.78888800  1
  O  O20  1  0.37175700  0.94489700  0.78866400  1
  O  O21  1  0.87333200  0.05700200  0.71041100  1
  O  O22  1  0.87197400  0.44378400  0.71001500  1
  O  O23  1  0.64972200  0.74960000  0.62083700  1
  O  O24  1  0.27171200  0.53693700  0.52172500  1
  O  O25  1  0.27229700  0.96326300  0.52422600  1
  O  O26  1  0.72850100  0.03345600  0.47877200  1
  O  O27  1  0.72879100  0.46659500  0.47459700  1
  O  O28  1  0.35775500  0.25219100  0.37810500  1
  O  O29  1  0.54989800  0.74890300  0.35749900  1
  O  O30  1  0.13490700  0.55876700  0.28894700  1
  O  O31  1  0.62635300  0.05368400  0.21111000  1
  O  O32  1  0.62842400  0.44854000  0.21297100  1
  O  O33  1  0.84386600  0.75106000  0.12112700  1
  O  O34  1  0.23038500  0.53613500  0.02324600  1
  O  O35  1  0.22723700  0.96462900  0.02309400  1
