# generated using pymatgen
data_Al2O3
_symmetry_space_group_name_H-M   'P 1'
_cell_length_a   4.82757300
_cell_length_b   5.09036300
_cell_length_c   14.09522100
_cell_angle_alpha   90.00000000
_cell_angle_beta   90.00000000
_cell_angle_gamma   90.00000000
_symmetry_Int_Tables_number   1
_chemical_formula_structural   Al2O3
_chemical_formula_sum   'Al16 O24'
_cell_volume   346.37735598
_cell_formula_units_Z   8
loop_
 _symmetry_equiv_pos_site_id
 _symmetry_equiv_pos_as_xyz
  1  'x, y, z'
loop_
 _atom_site_type_symbol
 _atom_site_label
 _atom_site_symmetry_multiplicity
 _atom_site_fract_x
 _atom_site_fract_y
 _atom_site_fract_z
 _atom_site_occupancy
  Al  Al0  1  0.99974000  0.18504900  0.07285300  1
  Al  Al1  1  0.99795900  0.74703600  0.17863700  1
  Al  Al2  1  0.99974000  0.31495100  0.57285300  1
  Al  Al3  1  0.99795900  0.75296400  0.67863700  1
  Al  Al4  1  0.50204100  0.24703600  0.17863700  1
  Al  Al5  1  0.50204100  0.25296400  0.67863700  1
  Al  Al6  1  0.50026000  0.68504900  0.07285300  1
  Al  Al7  1  0.50026000  0.81495100  0.57285300  1
  Al  Al8  1  0.49974000  0.18504900  0.42714700  1
  Al  Al9  1  0.49974000  0.31495100  0.92714700  1
  Al  Al10  1  0.49795900  0.74703600  0.32136300  1
  Al  Al11  1  0.49795900  0.75296400  0.82136300  1
  Al  Al12  1  0.00026000  0.68504900  0.42714700  1
  Al  Al13  1  0.00204100  0.24703600  0.32136300  1
  Al  Al14  1  0.00204100  0.25296400  0.82136300  1
  Al  Al15  1  0.00026000  0.81495100  0.92714700  1
  O  O16  1  0.14301000  0.11866000  0.20328700  1
  O  O17  1  0.14301000  0.38134000  0.70328700  1
  O  O18  1  0.15379200  0.83651000  0.04984000  1
  O  O19  1  0.15379200  0.66349000  0.54984000  1
  O  O20  1  0.19800300  0.96329100  0.37661000  1
  O  O21  1  0.19800300  0.53670900  0.87661000  1
  O  O22  1  0.30199700  0.46329100  0.37661000  1
  O  O23  1  0.30199700  0.03670900  0.87661000  1
  O  O24  1  0.34620800  0.16349000  0.54984000  1
  O  O25  1  0.34620800  0.33651000  0.04984000  1
  O  O26  1  0.35699000  0.61866000  0.20328700  1
  O  O27  1  0.35699000  0.88134000  0.70328700  1
  O  O28  1  0.64301000  0.11866000  0.29671300  1
  O  O29  1  0.64301000  0.38134000  0.79671300  1
  O  O30  1  0.65379200  0.83651000  0.45016000  1
  O  O31  1  0.65379200  0.66349000  0.95016000  1
  O  O32  1  0.69800300  0.53670900  0.62339000  1
  O  O33  1  0.69800300  0.96329100  0.12339000  1
  O  O34  1  0.80199700  0.46329100  0.12339000  1
  O  O35  1  0.80199700  0.03670900  0.62339000  1
  O  O36  1  0.84620800  0.33651000  0.45016000  1
  O  O37  1  0.84620800  0.16349000  0.95016000  1
  O  O38  1  0.85699000  0.88134000  0.79671300  1
  O  O39  1  0.85699000  0.61866000  0.29671300  1
