# generated using pymatgen
data_Ba3(YI6)2
_symmetry_space_group_name_H-M   'P 1'
_cell_length_a   13.84487000
_cell_length_b   14.51142600
_cell_length_c   20.59209211
_cell_angle_alpha   47.89722001
_cell_angle_beta   90.00000000
_cell_angle_gamma   90.00000000
_symmetry_Int_Tables_number   1
_chemical_formula_structural   Ba3(YI6)2
_chemical_formula_sum   'Ba12 Y8 I48'
_cell_volume   3069.51789543
_cell_formula_units_Z   4
loop_
 _symmetry_equiv_pos_site_id
 _symmetry_equiv_pos_as_xyz
  1  'x, y, z'
loop_
 _atom_site_type_symbol
 _atom_site_label
 _atom_site_symmetry_multiplicity
 _atom_site_fract_x
 _atom_site_fract_y
 _atom_site_fract_z
 _atom_site_occupancy
  Ba  Ba0  1  0.28248800  0.16388700  0.30705400  1
  Ba  Ba1  1  0.89741000  0.27563200  0.20969500  1
  Ba  Ba2  1  0.51785600  0.28956400  0.02013900  1
  Ba  Ba3  1  0.01785600  0.71043600  0.47986100  1
  Ba  Ba4  1  0.39741000  0.72436800  0.29030500  1
  Ba  Ba5  1  0.78248800  0.83611300  0.19294600  1
  Ba  Ba6  1  0.21751200  0.16388700  0.80705400  1
  Ba  Ba7  1  0.60259000  0.27563200  0.70969500  1
  Ba  Ba8  1  0.98214400  0.28956400  0.52013900  1
  Ba  Ba9  1  0.48214400  0.71043600  0.97986100  1
  Ba  Ba10  1  0.10259000  0.72436800  0.79030500  1
  Ba  Ba11  1  0.71751200  0.83611300  0.69294600  1
  Y  Y12  1  0.65092000  0.87538500  0.43403600  1
  Y  Y13  1  0.32076200  0.66399800  0.64525800  1
  Y  Y14  1  0.15092000  0.12461500  0.06596400  1
  Y  Y15  1  0.82076200  0.33600200  0.85474200  1
  Y  Y16  1  0.17923800  0.66399800  0.14525800  1
  Y  Y17  1  0.84908000  0.87538500  0.93403600  1
  Y  Y18  1  0.67923800  0.33600200  0.35474200  1
  Y  Y19  1  0.34908000  0.12461500  0.56596400  1
  I  I20  1  0.75332000  0.08527100  0.42369700  1
  I  I21  1  0.38093300  0.40739900  0.09074800  1
  I  I22  1  0.05166200  0.03815700  0.36035100  1
  I  I23  1  0.07060200  0.33175900  0.04596900  1
  I  I24  1  0.33441100  0.60277100  0.81653400  1
  I  I25  1  0.88287500  0.56763700  0.81590700  1
  I  I26  1  0.52528400  0.79077300  0.58983900  1
  I  I27  1  0.51875000  0.07041800  0.29620200  1
  I  I28  1  0.81202100  0.74722400  0.56777000  1
  I  I29  1  0.11335300  0.58567400  0.69032100  1
  I  I30  1  0.27531900  0.77661900  0.45975500  1
  I  I31  1  0.79701000  0.95859400  0.29825700  1
  I  I32  1  0.29701000  0.04140600  0.20174300  1
  I  I33  1  0.77531900  0.22338100  0.04024500  1
  I  I34  1  0.61335300  0.41432600  0.80967900  1
  I  I35  1  0.31202100  0.25277600  0.93223000  1
  I  I36  1  0.01875000  0.92958200  0.20379800  1
  I  I37  1  0.02528400  0.20922700  0.91016100  1
  I  I38  1  0.38287500  0.43236300  0.68409300  1
  I  I39  1  0.57060200  0.66824100  0.45403100  1
  I  I40  1  0.83441100  0.39722900  0.68346600  1
  I  I41  1  0.55166200  0.96184300  0.13964900  1
  I  I42  1  0.88093300  0.59260100  0.40925200  1
  I  I43  1  0.25332000  0.91472900  0.07630300  1
  I  I44  1  0.74668000  0.08527100  0.92369700  1
  I  I45  1  0.11906700  0.40739900  0.59074800  1
  I  I46  1  0.44833800  0.03815700  0.86035100  1
  I  I47  1  0.16558900  0.60277100  0.31653400  1
  I  I48  1  0.42939800  0.33175900  0.54596900  1
  I  I49  1  0.61712500  0.56763700  0.31590700  1
  I  I50  1  0.97471600  0.79077300  0.08983900  1
  I  I51  1  0.98125000  0.07041800  0.79620200  1
  I  I52  1  0.68797900  0.74722400  0.06777000  1
  I  I53  1  0.38664700  0.58567400  0.19032100  1
  I  I54  1  0.22468100  0.77661900  0.95975500  1
  I  I55  1  0.70299000  0.95859400  0.79825700  1
  I  I56  1  0.20299000  0.04140600  0.70174300  1
  I  I57  1  0.72468100  0.22338100  0.54024500  1
  I  I58  1  0.88664700  0.41432600  0.30967900  1
  I  I59  1  0.18797900  0.25277600  0.43223000  1
  I  I60  1  0.48125000  0.92958200  0.70379800  1
  I  I61  1  0.47471600  0.20922700  0.41016100  1
  I  I62  1  0.11712500  0.43236300  0.18409300  1
  I  I63  1  0.66558900  0.39722900  0.18346600  1
  I  I64  1  0.92939800  0.66824100  0.95403100  1
  I  I65  1  0.94833800  0.96184300  0.63964900  1
  I  I66  1  0.61906700  0.59260100  0.90925200  1
  I  I67  1  0.24668000  0.91472900  0.57630300  1
