# generated using pymatgen
data_Lu2P4O13
_symmetry_space_group_name_H-M   'P 1'
_cell_length_a   9.49702400
_cell_length_b   8.74396300
_cell_length_c   13.83405604
_cell_angle_alpha   73.88252555
_cell_angle_beta   90.00000000
_cell_angle_gamma   90.00000000
_symmetry_Int_Tables_number   1
_chemical_formula_structural   Lu2P4O13
_chemical_formula_sum   'Lu8 P16 O52'
_cell_volume   1103.64829431
_cell_formula_units_Z   4
loop_
 _symmetry_equiv_pos_site_id
 _symmetry_equiv_pos_as_xyz
  1  'x, y, z'
loop_
 _atom_site_type_symbol
 _atom_site_label
 _atom_site_symmetry_multiplicity
 _atom_site_fract_x
 _atom_site_fract_y
 _atom_site_fract_z
 _atom_site_occupancy
  Lu  Lu0  1  0.99660000  0.97207100  0.72090400  1
  Lu  Lu1  1  0.50340000  0.97207100  0.22090400  1
  Lu  Lu2  1  0.00127400  0.55358200  0.73759900  1
  Lu  Lu3  1  0.50127400  0.44641800  0.76240100  1
  Lu  Lu4  1  0.49872600  0.55358200  0.23759900  1
  Lu  Lu5  1  0.99872600  0.44641800  0.26240100  1
  Lu  Lu6  1  0.49660000  0.02792900  0.77909600  1
  Lu  Lu7  1  0.00340000  0.02792900  0.27909600  1
  P  P8  1  0.76030200  0.85568500  0.93624900  1
  P  P9  1  0.26980400  0.71254900  0.84569900  1
  P  P10  1  0.70464800  0.78283500  0.65758300  1
  P  P11  1  0.73969800  0.85568500  0.43624900  1
  P  P12  1  0.75017800  0.50409100  0.93910900  1
  P  P13  1  0.23019600  0.71254900  0.34569900  1
  P  P14  1  0.79535200  0.78283500  0.15758300  1
  P  P15  1  0.25017800  0.49590900  0.56089100  1
  P  P16  1  0.74982200  0.50409100  0.43910900  1
  P  P17  1  0.20464800  0.21716500  0.84241700  1
  P  P18  1  0.76980400  0.28745100  0.65430100  1
  P  P19  1  0.24982200  0.49590900  0.06089100  1
  P  P20  1  0.26030200  0.14431500  0.56375100  1
  P  P21  1  0.29535200  0.21716500  0.34241700  1
  P  P22  1  0.73019600  0.28745100  0.15430100  1
  P  P23  1  0.23969800  0.14431500  0.06375100  1
  O  O24  1  0.63218400  0.96115900  0.91155900  1
  O  O25  1  0.87922800  0.88977000  0.86168800  1
  O  O26  1  0.33724000  0.86295900  0.85871900  1
  O  O27  1  0.62811900  0.88093000  0.71582500  1
  O  O28  1  0.86781600  0.96115900  0.41155900  1
  O  O29  1  0.67535800  0.87153700  0.54000000  1
  O  O30  1  0.70504000  0.67211400  0.96056800  1
  O  O31  1  0.13448400  0.74836800  0.77903100  1
  O  O32  1  0.86796000  0.78004100  0.67328500  1
  O  O33  1  0.62077200  0.88977000  0.36168800  1
  O  O34  1  0.20637100  0.60786100  0.95304700  1
  O  O35  1  0.16276000  0.86295900  0.35871900  1
  O  O36  1  0.87188100  0.88093000  0.21582500  1
  O  O37  1  0.37312300  0.60967300  0.80860300  1
  O  O38  1  0.88085600  0.53039800  0.87543100  1
  O  O39  1  0.64741900  0.61526000  0.67623700  1
  O  O40  1  0.82464200  0.87153700  0.04000000  1
  O  O41  1  0.79496000  0.67211400  0.46056800  1
  O  O42  1  0.36551600  0.74836800  0.27903100  1
  O  O43  1  0.63204000  0.78004100  0.17328500  1
  O  O44  1  0.12368400  0.56410000  0.60001400  1
  O  O45  1  0.29362900  0.60786100  0.45304700  1
  O  O46  1  0.62368400  0.43590000  0.89998600  1
  O  O47  1  0.14741900  0.38474000  0.82376300  1
  O  O48  1  0.38085600  0.46960200  0.62456900  1
  O  O49  1  0.12687700  0.60967300  0.30860300  1
  O  O50  1  0.87312300  0.39032700  0.69139700  1
  O  O51  1  0.61914400  0.53039800  0.37543100  1
  O  O52  1  0.85258100  0.61526000  0.17623700  1
  O  O53  1  0.37631600  0.56410000  0.10001400  1
  O  O54  1  0.70637100  0.39213900  0.54695300  1
  O  O55  1  0.87631600  0.43590000  0.39998600  1
  O  O56  1  0.36796000  0.21995900  0.82671500  1
  O  O57  1  0.63448400  0.25163200  0.72096900  1
  O  O58  1  0.20504000  0.32788600  0.53943200  1
  O  O59  1  0.17535800  0.12846300  0.96000000  1
  O  O60  1  0.35258100  0.38474000  0.32376300  1
  O  O61  1  0.11914400  0.46960200  0.12456900  1
  O  O62  1  0.62687700  0.39032700  0.19139700  1
  O  O63  1  0.12811900  0.11907000  0.78417500  1
  O  O64  1  0.83724000  0.13704100  0.64128100  1
  O  O65  1  0.79362900  0.39213900  0.04695300  1
  O  O66  1  0.37922800  0.11023000  0.63831200  1
  O  O67  1  0.13204000  0.21995900  0.32671500  1
  O  O68  1  0.86551600  0.25163200  0.22096900  1
  O  O69  1  0.29496000  0.32788600  0.03943200  1
  O  O70  1  0.32464200  0.12846300  0.46000000  1
  O  O71  1  0.13218400  0.03884100  0.58844100  1
  O  O72  1  0.37188100  0.11907000  0.28417500  1
  O  O73  1  0.66276000  0.13704100  0.14128100  1
  O  O74  1  0.12077200  0.11023000  0.13831200  1
  O  O75  1  0.36781600  0.03884100  0.08844100  1
