# generated using pymatgen
data_NiB
_symmetry_space_group_name_H-M   'P 1'
_cell_length_a   3.95945011
_cell_length_b   3.95945011
_cell_length_c   2.97183100
_cell_angle_alpha   90.00000000
_cell_angle_beta   90.00000000
_cell_angle_gamma   136.25952467
_symmetry_Int_Tables_number   1
_chemical_formula_structural   NiB
_chemical_formula_sum   'Ni2 B2'
_cell_volume   32.21208330
_cell_formula_units_Z   2
loop_
 _symmetry_equiv_pos_site_id
 _symmetry_equiv_pos_as_xyz
  1  'x, y, z'
loop_
 _atom_site_type_symbol
 _atom_site_label
 _atom_site_symmetry_multiplicity
 _atom_site_fract_x
 _atom_site_fract_y
 _atom_site_fract_z
 _atom_site_occupancy
  Ni  Ni0  1  0.14701500  0.85298500  0.75000000  1
  Ni  Ni1  1  0.85298500  0.14701500  0.25000000  1
  B  B2  1  0.43301100  0.56698900  0.75000000  1
  B  B3  1  0.56698900  0.43301100  0.25000000  1
