# generated using pymatgen
data_NbV3O10
_symmetry_space_group_name_H-M   'P 1'
_cell_length_a   6.71640500
_cell_length_b   6.71640500
_cell_length_c   4.51146200
_cell_angle_alpha   90.00000000
_cell_angle_beta   90.00000000
_cell_angle_gamma   90.00000000
_symmetry_Int_Tables_number   1
_chemical_formula_structural   NbV3O10
_chemical_formula_sum   'Nb1 V3 O10'
_cell_volume   203.51248448
_cell_formula_units_Z   1
loop_
 _symmetry_equiv_pos_site_id
 _symmetry_equiv_pos_as_xyz
  1  'x, y, z'
loop_
 _atom_site_type_symbol
 _atom_site_label
 _atom_site_symmetry_multiplicity
 _atom_site_fract_x
 _atom_site_fract_y
 _atom_site_fract_z
 _atom_site_occupancy
  Nb  Nb0  1  0.50000000  0.50000000  0.50000000  1
  V  V1  1  0.50000000  0.00000000  0.63402600  1
  V  V2  1  0.00000000  0.50000000  0.36597400  1
  V  V3  1  0.00000000  0.00000000  0.50000000  1
  O  O4  1  0.00000000  0.78230800  0.28757500  1
  O  O5  1  0.50000000  0.00000000  0.27465000  1
  O  O6  1  0.78230800  0.00000000  0.71242500  1
  O  O7  1  0.21769200  0.00000000  0.71242500  1
  O  O8  1  0.00000000  0.21769200  0.28757500  1
  O  O9  1  0.50000000  0.27202200  0.73852700  1
  O  O10  1  0.27202200  0.50000000  0.26147300  1
  O  O11  1  0.72797800  0.50000000  0.26147300  1
  O  O12  1  0.00000000  0.50000000  0.72535000  1
  O  O13  1  0.50000000  0.72797800  0.73852700  1
