# generated using pymatgen
data_Ti3(WO6)2
_symmetry_space_group_name_H-M   'P 1'
_cell_length_a   9.40564900
_cell_length_b   9.24458700
_cell_length_c   15.90173166
_cell_angle_alpha   54.67257425
_cell_angle_beta   90.00000000
_cell_angle_gamma   90.00000000
_symmetry_Int_Tables_number   1
_chemical_formula_structural   Ti3(WO6)2
_chemical_formula_sum   'Ti12 W8 O48'
_cell_volume   1128.07199770
_cell_formula_units_Z   4
loop_
 _symmetry_equiv_pos_site_id
 _symmetry_equiv_pos_as_xyz
  1  'x, y, z'
loop_
 _atom_site_type_symbol
 _atom_site_label
 _atom_site_symmetry_multiplicity
 _atom_site_fract_x
 _atom_site_fract_y
 _atom_site_fract_z
 _atom_site_occupancy
  Ti  Ti0  1  0.74768800  0.53826500  0.48959400  1
  Ti  Ti1  1  0.61583500  0.25177200  0.85659200  1
  Ti  Ti2  1  0.89062100  0.97172400  0.14023900  1
  Ti  Ti3  1  0.11583500  0.74822800  0.64340800  1
  Ti  Ti4  1  0.39062100  0.02827600  0.35976100  1
  Ti  Ti5  1  0.24768800  0.46173500  0.01040600  1
  Ti  Ti6  1  0.75231200  0.53826500  0.98959400  1
  Ti  Ti7  1  0.60937900  0.97172400  0.64023900  1
  Ti  Ti8  1  0.88416500  0.25177200  0.35659200  1
  Ti  Ti9  1  0.10937900  0.02827600  0.85976100  1
  Ti  Ti10  1  0.38416500  0.74822800  0.14340800  1
  Ti  Ti11  1  0.25231200  0.46173500  0.51040600  1
  W  W12  1  0.97260800  0.37090700  0.88219600  1
  W  W13  1  0.47260800  0.62909300  0.61780400  1
  W  W14  1  0.52739200  0.37090700  0.38219600  1
  W  W15  1  0.02739200  0.62909300  0.11780400  1
  W  W16  1  0.03148300  0.87056600  0.37998200  1
  W  W17  1  0.53148300  0.12943400  0.12001800  1
  W  W18  1  0.46851700  0.87056600  0.87998200  1
  W  W19  1  0.96851700  0.12943400  0.62001800  1
  O  O20  1  0.13603100  0.65272500  0.43509000  1
  O  O21  1  0.09154600  0.19655400  0.88578500  1
  O  O22  1  0.34086600  0.47531700  0.60824100  1
  O  O23  1  0.42731000  0.91679700  0.16478700  1
  O  O24  1  0.62420900  0.54085800  0.57752400  1
  O  O25  1  0.80847500  0.28562700  0.84883400  1
  O  O26  1  0.55807800  0.17190600  0.98417400  1
  O  O27  1  0.00620100  0.90651400  0.25027000  1
  O  O28  1  0.70663000  0.99490400  0.16702700  1
  O  O29  1  0.85579300  0.73730000  0.42908500  1
  O  O30  1  0.51749800  0.45656300  0.75970300  1
  O  O31  1  0.01749800  0.54343700  0.74029700  1
  O  O32  1  0.93985700  0.18879600  0.03081900  1
  O  O33  1  0.43985700  0.81120400  0.46918100  1
  O  O34  1  0.35579300  0.26270000  0.07091500  1
  O  O35  1  0.20663000  0.00509600  0.33297300  1
  O  O36  1  0.05807800  0.82809400  0.51582600  1
  O  O37  1  0.50620100  0.09348600  0.24973000  1
  O  O38  1  0.30847500  0.71437300  0.65116600  1
  O  O39  1  0.12420900  0.45914200  0.92247600  1
  O  O40  1  0.84086600  0.52468300  0.89175900  1
  O  O41  1  0.59154600  0.80344600  0.61421500  1
  O  O42  1  0.92731000  0.08320300  0.33521300  1
  O  O43  1  0.63603100  0.34727500  0.06491000  1
  O  O44  1  0.36396900  0.65272500  0.93509000  1
  O  O45  1  0.07269000  0.91679700  0.66478700  1
  O  O46  1  0.40845400  0.19655400  0.38578500  1
  O  O47  1  0.15913400  0.47531700  0.10824100  1
  O  O48  1  0.87579100  0.54085800  0.07752400  1
  O  O49  1  0.69152500  0.28562700  0.34883400  1
  O  O50  1  0.49379900  0.90651400  0.75027000  1
  O  O51  1  0.94192200  0.17190600  0.48417400  1
  O  O52  1  0.79337000  0.99490400  0.66702700  1
  O  O53  1  0.64420700  0.73730000  0.92908500  1
  O  O54  1  0.56014300  0.18879600  0.53081900  1
  O  O55  1  0.06014300  0.81120400  0.96918100  1
  O  O56  1  0.98250200  0.45656300  0.25970300  1
  O  O57  1  0.48250200  0.54343700  0.24029700  1
  O  O58  1  0.14420700  0.26270000  0.57091500  1
  O  O59  1  0.29337000  0.00509600  0.83297300  1
  O  O60  1  0.99379900  0.09348600  0.74973000  1
  O  O61  1  0.44192200  0.82809400  0.01582600  1
  O  O62  1  0.19152500  0.71437300  0.15116600  1
  O  O63  1  0.37579100  0.45914200  0.42247600  1
  O  O64  1  0.57269000  0.08320300  0.83521300  1
  O  O65  1  0.65913400  0.52468300  0.39175900  1
  O  O66  1  0.90845400  0.80344600  0.11421500  1
  O  O67  1  0.86396900  0.34727500  0.56491000  1
