# generated using pymatgen
data_La2Nb2N2O5
_symmetry_space_group_name_H-M   'P 1'
_cell_length_a   5.71461500
_cell_length_b   8.05266315
_cell_length_c   13.74421801
_cell_angle_alpha   98.38065952
_cell_angle_beta   91.17968068
_cell_angle_gamma   89.98901423
_symmetry_Int_Tables_number   1
_chemical_formula_structural   La2Nb2N2O5
_chemical_formula_sum   'La8 Nb8 N8 O20'
_cell_volume   625.59060726
_cell_formula_units_Z   4
loop_
 _symmetry_equiv_pos_site_id
 _symmetry_equiv_pos_as_xyz
  1  'x, y, z'
loop_
 _atom_site_type_symbol
 _atom_site_label
 _atom_site_symmetry_multiplicity
 _atom_site_fract_x
 _atom_site_fract_y
 _atom_site_fract_z
 _atom_site_occupancy
  La  La0  1  0.33924000  0.13364000  0.56763100  1
  La  La1  1  0.76522600  0.21459400  0.90964800  1
  La  La2  1  0.25304600  0.27530000  0.12226900  1
  La  La3  1  0.77284400  0.33856400  0.38143700  1
  La  La4  1  0.28686200  0.67386200  0.61628400  1
  La  La5  1  0.75180900  0.72941300  0.88055500  1
  La  La6  1  0.26502900  0.77962600  0.09309600  1
  La  La7  1  0.82986900  0.86234000  0.43233400  1
  Nb  Nb8  1  0.26319000  0.05835400  0.31210400  1
  Nb  Nb9  1  0.73957600  0.01736400  0.10907100  1
  Nb  Nb10  1  0.79385200  0.41487600  0.67345900  1
  Nb  Nb11  1  0.26467300  0.47072100  0.88244200  1
  Nb  Nb12  1  0.76630300  0.53516600  0.11828900  1
  Nb  Nb13  1  0.28423800  0.58755200  0.32645300  1
  Nb  Nb14  1  0.26431000  0.96340100  0.87523200  1
  Nb  Nb15  1  0.78640100  0.92801500  0.67635400  1
  N  N16  1  0.45645700  0.02993000  0.19011800  1
  N  N17  1  0.45507000  0.87269300  0.77269500  1
  N  N18  1  0.53948900  0.96110900  0.98634300  1
  N  N19  1  0.55754900  0.87328100  0.56923700  1
  N  N20  1  0.82088000  0.77127000  0.10875900  1
  N  N21  1  0.19278100  0.82293500  0.30378700  1
  N  N22  1  0.94091100  0.97456600  0.82178800  1
  N  N23  1  0.04592200  0.91624200  0.59006100  1
  O  O24  1  0.54058700  0.09187400  0.40933700  1
  O  O25  1  0.68802500  0.18250700  0.69609200  1
  O  O26  1  0.32131400  0.22923500  0.88974200  1
  O  O27  1  0.05315800  0.13613600  0.42999500  1
  O  O28  1  0.03950800  0.05111000  0.02570300  1
  O  O29  1  0.97277200  0.12600600  0.23037900  1
  O  O30  1  0.07869900  0.37457600  0.61419400  1
  O  O31  1  0.94357800  0.43121500  0.82076800  1
  O  O32  1  0.67365700  0.27761800  0.08639200  1
  O  O33  1  0.35249700  0.33716900  0.30448600  1
  O  O34  1  0.58685100  0.40918000  0.56080300  1
  O  O35  1  0.52385800  0.53580800  0.98072200  1
  O  O36  1  0.45393300  0.49915900  0.77461300  1
  O  O37  1  0.96298700  0.49731400  0.22805400  1
  O  O38  1  0.02968000  0.46138000  0.01941900  1
  O  O39  1  0.08056900  0.58700200  0.43663200  1
  O  O40  1  0.84700400  0.66327800  0.69505300  1
  O  O41  1  0.17413500  0.72156200  0.91237100  1
  O  O42  1  0.44498400  0.56501700  0.17843800  1
  O  O43  1  0.58165800  0.61803900  0.38736000  1
