# generated using pymatgen
data_TiO2
_symmetry_space_group_name_H-M   'P 1'
_cell_length_a   9.90433800
_cell_length_b   11.71480767
_cell_length_c   11.73865301
_cell_angle_alpha   94.19409923
_cell_angle_beta   114.91301601
_cell_angle_gamma   114.98046272
_symmetry_Int_Tables_number   1
_chemical_formula_structural   TiO2
_chemical_formula_sum   'Ti18 O36'
_cell_volume   1066.23434960
_cell_formula_units_Z   18
loop_
 _symmetry_equiv_pos_site_id
 _symmetry_equiv_pos_as_xyz
  1  'x, y, z'
loop_
 _atom_site_type_symbol
 _atom_site_label
 _atom_site_symmetry_multiplicity
 _atom_site_fract_x
 _atom_site_fract_y
 _atom_site_fract_z
 _atom_site_occupancy
  Ti  Ti0  1  0.75167600  0.08403400  0.91688000  1
  Ti  Ti1  1  0.56793000  0.08620500  0.58851500  1
  Ti  Ti2  1  0.67390500  0.50255700  0.83585000  1
  Ti  Ti3  1  0.15813700  0.00815300  0.31988300  1
  Ti  Ti4  1  0.07525000  0.24388400  0.41558400  1
  Ti  Ti5  1  0.25798300  0.57570800  0.41710400  1
  Ti  Ti6  1  0.26219300  0.24342000  0.74950900  1
  Ti  Ti7  1  0.57488400  0.74899300  0.91889300  1
  Ti  Ti8  1  0.16427900  0.67135500  0.64978000  1
  Ti  Ti9  1  0.16524800  0.33699400  0.98246400  1
  Ti  Ti10  1  0.66562200  0.16663600  0.16969100  1
  Ti  Ti11  1  0.75637200  0.41739200  0.58477500  1
  Ti  Ti12  1  0.74706900  0.75110600  0.25219300  1
  Ti  Ti13  1  0.07367100  0.90878400  0.75019500  1
  Ti  Ti14  1  0.57194900  0.41529100  0.25504100  1
  Ti  Ti15  1  0.66342500  0.83915200  0.50125600  1
  Ti  Ti16  1  0.25169700  0.90640600  0.08451200  1
  Ti  Ti17  1  0.07549100  0.57082500  0.08320900  1
  O  O18  1  0.60085700  0.07326100  0.75208800  1
  O  O19  1  0.34901800  0.04943000  0.47585300  1
  O  O20  1  0.48784900  0.34389700  0.79607300  1
  O  O21  1  0.62842500  0.63642900  0.85621200  1
  O  O22  1  0.11686000  0.14586200  0.32076700  1
  O  O23  1  0.21693600  0.41893700  0.44969000  1
  O  O24  1  0.21107700  0.08289000  0.77653100  1
  O  O25  1  0.71126000  0.91878600  0.92911100  1
  O  O26  1  0.12260200  0.53991500  0.24093900  1
  O  O27  1  0.12940100  0.21545300  0.57455900  1
  O  O28  1  0.21188700  0.32890100  0.84801400  1
  O  O29  1  0.20358500  0.66079000  0.51192200  1
  O  O30  1  0.72261700  0.15928900  0.04071600  1
  O  O31  1  0.35206400  0.70039700  0.80252600  1
  O  O32  1  0.84816000  0.19579000  0.32481300  1
  O  O33  1  0.84921700  0.52304900  0.99113500  1
  O  O34  1  0.97413800  0.51656000  0.61291400  1
  O  O35  1  0.96968300  0.18592300  0.94527400  1
  O  O36  1  0.62246700  0.30181700  0.18895300  1
  O  O37  1  0.12767600  0.47527300  0.99608900  1
  O  O38  1  0.12079200  0.80655400  0.66495500  1
  O  O39  1  0.97037900  0.85785600  0.29546900  1
  O  O40  1  0.71597700  0.25370900  0.60201800  1
  O  O41  1  0.70753800  0.58661500  0.26768400  1
  O  O42  1  0.12043600  0.88162800  0.91005300  1
  O  O43  1  0.60753900  0.73945700  0.08309600  1
  O  O44  1  0.60389500  0.40323100  0.41863000  1
  O  O45  1  0.73663900  0.50089800  0.70990000  1
  O  O46  1  0.34943000  0.36744700  0.13894100  1
  O  O47  1  0.70728700  0.82987200  0.36545800  1
  O  O48  1  0.85022300  0.86881800  0.65370500  1
  O  O49  1  0.47849700  0.01110100  0.13640000  1
  O  O50  1  0.48399300  0.67931100  0.46794200  1
  O  O51  1  0.60699700  0.96688300  0.51853200  1
  O  O52  1  0.20700500  0.74611800  0.11063300  1
  O  O53  1  0.19604700  0.98542700  0.18325400  1
