# generated using pymatgen
data_Ba3Y2Br12
_symmetry_space_group_name_H-M   'P 1'
_cell_length_a   13.40670700
_cell_length_b   12.87532800
_cell_length_c   20.60916275
_cell_angle_alpha   55.39503889
_cell_angle_beta   90.00000000
_cell_angle_gamma   90.00000000
_symmetry_Int_Tables_number   1
_chemical_formula_structural   Ba3Y2Br12
_chemical_formula_sum   'Ba12 Y8 Br48'
_cell_volume   2928.10478865
_cell_formula_units_Z   4
loop_
 _symmetry_equiv_pos_site_id
 _symmetry_equiv_pos_as_xyz
  1  'x, y, z'
loop_
 _atom_site_type_symbol
 _atom_site_label
 _atom_site_symmetry_multiplicity
 _atom_site_fract_x
 _atom_site_fract_y
 _atom_site_fract_z
 _atom_site_occupancy
  Ba  Ba0  1  0.20471500  0.43421600  0.52907700  1
  Ba  Ba1  1  0.13008600  0.71697000  0.15282700  1
  Ba  Ba2  1  0.33973600  0.97279900  0.90059800  1
  Ba  Ba3  1  0.63008600  0.28303000  0.34717300  1
  Ba  Ba4  1  0.83973600  0.02720100  0.59940200  1
  Ba  Ba5  1  0.70471500  0.56578400  0.97092300  1
  Ba  Ba6  1  0.29528500  0.43421600  0.02907700  1
  Ba  Ba7  1  0.16026400  0.97279900  0.40059800  1
  Ba  Ba8  1  0.36991400  0.71697000  0.65282700  1
  Ba  Ba9  1  0.66026400  0.02720100  0.09940200  1
  Ba  Ba10  1  0.86991400  0.28303000  0.84717300  1
  Ba  Ba11  1  0.79528500  0.56578400  0.47092300  1
  Y  Y12  1  0.47979400  0.62823600  0.13214000  1
  Y  Y13  1  0.97979400  0.37176400  0.36786000  1
  Y  Y14  1  0.52588000  0.11630100  0.63949500  1
  Y  Y15  1  0.02588000  0.88369900  0.86050500  1
  Y  Y16  1  0.97412000  0.11630100  0.13949500  1
  Y  Y17  1  0.47412000  0.88369900  0.36050500  1
  Y  Y18  1  0.02020600  0.62823600  0.63214000  1
  Y  Y19  1  0.52020600  0.37176400  0.86786000  1
  Br  Br20  1  0.62919700  0.80721000  0.06822900  1
  Br  Br21  1  0.63499200  0.34431900  0.54209600  1
  Br  Br22  1  0.80048100  0.51559000  0.33363400  1
  Br  Br23  1  0.92160800  0.10976800  0.78679200  1
  Br  Br24  1  0.12251600  0.54611700  0.35079800  1
  Br  Br25  1  0.35279200  0.82782400  0.09626800  1
  Br  Br26  1  0.10736800  0.94213400  0.96712300  1
  Br  Br27  1  0.47649800  0.15838800  0.75201700  1
  Br  Br28  1  0.19124800  0.02080000  0.76791500  1
  Br  Br29  1  0.35941100  0.23835000  0.54302300  1
  Br  Br30  1  0.98892700  0.48287900  0.20918400  1
  Br  Br31  1  0.45556800  0.68569100  0.97419500  1
  Br  Br32  1  0.48892700  0.51712100  0.29081600  1
  Br  Br33  1  0.95556800  0.31430900  0.52580500  1
  Br  Br34  1  0.85941100  0.76165000  0.95697700  1
  Br  Br35  1  0.69124800  0.97920000  0.73208500  1
  Br  Br36  1  0.60736800  0.05786600  0.53287700  1
  Br  Br37  1  0.85279200  0.17217600  0.40373200  1
  Br  Br38  1  0.97649800  0.84161200  0.74798300  1
  Br  Br39  1  0.62251600  0.45388300  0.14920200  1
  Br  Br40  1  0.30048100  0.48441000  0.16636600  1
  Br  Br41  1  0.12919700  0.19279000  0.43177100  1
  Br  Br42  1  0.42160800  0.89023200  0.71320800  1
  Br  Br43  1  0.13499200  0.65568100  0.95790400  1
  Br  Br44  1  0.86500800  0.34431900  0.04209600  1
  Br  Br45  1  0.57839200  0.10976800  0.28679200  1
  Br  Br46  1  0.87080300  0.80721000  0.56822900  1
  Br  Br47  1  0.69951900  0.51559000  0.83363400  1
  Br  Br48  1  0.37748400  0.54611700  0.85079800  1
  Br  Br49  1  0.02350200  0.15838800  0.25201700  1
  Br  Br50  1  0.14720800  0.82782400  0.59626800  1
  Br  Br51  1  0.39263200  0.94213400  0.46712300  1
  Br  Br52  1  0.30875200  0.02080000  0.26791500  1
  Br  Br53  1  0.14058900  0.23835000  0.04302300  1
  Br  Br54  1  0.04443200  0.68569100  0.47419500  1
  Br  Br55  1  0.51107300  0.48287900  0.70918400  1
  Br  Br56  1  0.54443200  0.31430900  0.02580500  1
  Br  Br57  1  0.01107300  0.51712100  0.79081600  1
  Br  Br58  1  0.64058900  0.76165000  0.45697700  1
  Br  Br59  1  0.80875200  0.97920000  0.23208500  1
  Br  Br60  1  0.52350200  0.84161200  0.24798300  1
  Br  Br61  1  0.89263200  0.05786600  0.03287700  1
  Br  Br62  1  0.64720800  0.17217600  0.90373200  1
  Br  Br63  1  0.87748400  0.45388300  0.64920200  1
  Br  Br64  1  0.07839200  0.89023200  0.21320800  1
  Br  Br65  1  0.19951900  0.48441000  0.66636600  1
  Br  Br66  1  0.36500800  0.65568100  0.45790400  1
  Br  Br67  1  0.37080300  0.19279000  0.93177100  1
