# generated using pymatgen
data_Sn2N2O
_symmetry_space_group_name_H-M   'P 1'
_cell_length_a   8.81891500
_cell_length_b   8.82843871
_cell_length_c   8.83230620
_cell_angle_alpha   109.39634238
_cell_angle_beta   109.31908618
_cell_angle_gamma   109.22342863
_symmetry_Int_Tables_number   1
_chemical_formula_structural   Sn2N2O
_chemical_formula_sum   'Sn16 N16 O8'
_cell_volume   532.43860519
_cell_formula_units_Z   8
loop_
 _symmetry_equiv_pos_site_id
 _symmetry_equiv_pos_as_xyz
  1  'x, y, z'
loop_
 _atom_site_type_symbol
 _atom_site_label
 _atom_site_symmetry_multiplicity
 _atom_site_fract_x
 _atom_site_fract_y
 _atom_site_fract_z
 _atom_site_occupancy
  Sn  Sn0  1  0.97482800  0.22409000  0.26185700  1
  Sn  Sn1  1  0.99049700  0.99681200  0.49025700  1
  Sn  Sn2  1  0.73089200  0.75698000  0.97634400  1
  Sn  Sn3  1  0.77890000  0.24029600  0.52952000  1
  Sn  Sn4  1  0.25285800  0.53291500  0.78564100  1
  Sn  Sn5  1  0.25277200  0.03096900  0.28033500  1
  Sn  Sn6  1  0.53738600  0.28601000  0.75221900  1
  Sn  Sn7  1  0.51406700  0.50456900  0.50133500  1
  Sn  Sn8  1  0.48854700  0.99067200  0.99067300  1
  Sn  Sn9  1  0.00676900  0.50476200  0.01066000  1
  Sn  Sn10  1  0.46612600  0.71552600  0.24976200  1
  Sn  Sn11  1  0.75031900  0.47248700  0.20955400  1
  Sn  Sn12  1  0.73694100  0.95396300  0.70546900  1
  Sn  Sn13  1  0.20898400  0.73540000  0.46347200  1
  Sn  Sn14  1  0.29532000  0.25597500  0.03105900  1
  Sn  Sn15  1  0.03335000  0.78575800  0.74978900  1
  N  N16  1  0.04102800  0.27853200  0.54265100  1
  N  N17  1  0.53899700  0.26268800  0.50025800  1
  N  N18  1  0.22537500  0.45543100  0.99121100  1
  N  N19  1  0.51584200  0.77060400  0.03865100  1
  N  N20  1  0.99610800  0.45150000  0.23263800  1
  N  N21  1  0.72471300  0.96259200  0.45932000  1
  N  N22  1  0.50037200  0.22292900  0.95088000  1
  N  N23  1  0.77860100  0.73831800  0.74443900  1
  N  N24  1  0.23443200  0.77507400  0.23514800  1
  N  N25  1  0.26030200  0.00222900  0.03607700  1
  N  N26  1  0.77183900  0.54161700  0.99638900  1
  N  N27  1  0.45754600  0.72684500  0.50841500  1
  N  N28  1  0.26008000  0.75395800  0.72671100  1
  N  N29  1  0.97238300  0.97106400  0.22845700  1
  N  N30  1  0.95873900  0.73637100  0.46252400  1
  N  N31  1  0.54571500  0.50159300  0.26972900  1
  O  O32  1  0.44771900  0.48195300  0.71734000  1
  O  O33  1  0.03911500  0.05291700  0.77172500  1
  O  O34  1  0.71787200  0.21978200  0.26656400  1
  O  O35  1  0.77282300  0.22446500  0.77822900  1
  O  O36  1  0.73693200  0.01853300  0.96118200  1
  O  O37  1  0.97616800  0.53079500  0.76404000  1
  O  O38  1  0.27167800  0.04749900  0.55204500  1
  O  O39  1  0.23706400  0.28552600  0.27743500  1
