# generated using pymatgen
data_Sb2(SO4)3
_symmetry_space_group_name_H-M   'P 1'
_cell_length_a   9.07261300
_cell_length_b   9.23258600
_cell_length_c   25.45404600
_cell_angle_alpha   90.00000000
_cell_angle_beta   90.00000000
_cell_angle_gamma   90.00000000
_symmetry_Int_Tables_number   1
_chemical_formula_structural   Sb2(SO4)3
_chemical_formula_sum   'Sb16 S24 O96'
_cell_volume   2132.12455792
_cell_formula_units_Z   8
loop_
 _symmetry_equiv_pos_site_id
 _symmetry_equiv_pos_as_xyz
  1  'x, y, z'
loop_
 _atom_site_type_symbol
 _atom_site_label
 _atom_site_symmetry_multiplicity
 _atom_site_fract_x
 _atom_site_fract_y
 _atom_site_fract_z
 _atom_site_occupancy
  Sb  Sb0  1  0.00380400  0.38071600  0.06335100  1
  Sb  Sb1  1  0.00380400  0.11928400  0.56335100  1
  Sb  Sb2  1  0.99098300  0.80403800  0.17960200  1
  Sb  Sb3  1  0.99098300  0.69596200  0.67960200  1
  Sb  Sb4  1  0.50901700  0.30403800  0.17960200  1
  Sb  Sb5  1  0.50901700  0.19596200  0.67960200  1
  Sb  Sb6  1  0.49619600  0.61928400  0.56335100  1
  Sb  Sb7  1  0.49619600  0.88071600  0.06335100  1
  Sb  Sb8  1  0.50380400  0.38071600  0.43664900  1
  Sb  Sb9  1  0.50380400  0.11928400  0.93664900  1
  Sb  Sb10  1  0.49098300  0.69596200  0.82039800  1
  Sb  Sb11  1  0.49098300  0.80403800  0.32039800  1
  Sb  Sb12  1  0.00901700  0.30403800  0.32039800  1
  Sb  Sb13  1  0.00901700  0.19596200  0.82039800  1
  Sb  Sb14  1  0.99619600  0.88071600  0.43664900  1
  Sb  Sb15  1  0.99619600  0.61928400  0.93664900  1
  S  S16  1  0.14408900  0.94488700  0.29715600  1
  S  S17  1  0.14408900  0.55511300  0.79715600  1
  S  S18  1  0.14887000  0.26367700  0.44973900  1
  S  S19  1  0.14887000  0.23632300  0.94973900  1
  S  S20  1  0.19047200  0.08759100  0.11632600  1
  S  S21  1  0.19047200  0.41240900  0.61632600  1
  S  S22  1  0.30952800  0.58759100  0.11632600  1
  S  S23  1  0.30952800  0.91240900  0.61632600  1
  S  S24  1  0.35113000  0.76367700  0.44973900  1
  S  S25  1  0.35113000  0.73632300  0.94973900  1
  S  S26  1  0.35591100  0.44488700  0.29715600  1
  S  S27  1  0.35591100  0.05511300  0.79715600  1
  S  S28  1  0.64408900  0.55511300  0.70284400  1
  S  S29  1  0.64408900  0.94488700  0.20284400  1
  S  S30  1  0.64887000  0.26367700  0.05026100  1
  S  S31  1  0.64887000  0.23632300  0.55026100  1
  S  S32  1  0.69047200  0.08759100  0.38367400  1
  S  S33  1  0.69047200  0.41240900  0.88367400  1
  S  S34  1  0.80952800  0.58759100  0.38367400  1
  S  S35  1  0.80952800  0.91240900  0.88367400  1
  S  S36  1  0.85113000  0.76367700  0.05026100  1
  S  S37  1  0.85113000  0.73632300  0.55026100  1
  S  S38  1  0.85591100  0.44488700  0.20284400  1
  S  S39  1  0.85591100  0.05511300  0.70284400  1
  O  O40  1  0.07164100  0.39679200  0.45989400  1
  O  O41  1  0.07164100  0.10320800  0.95989400  1
  O  O42  1  0.09386000  0.09030600  0.27990700  1
  O  O43  1  0.09386000  0.40969400  0.77990700  1
  O  O44  1  0.08528400  0.13643000  0.48299300  1
  O  O45  1  0.08528400  0.36357000  0.98299300  1
  O  O46  1  0.08998100  0.90596800  0.34976600  1
  O  O47  1  0.08998100  0.59403200  0.84976600  1
  O  O48  1  0.08914200  0.17876900  0.08180200  1
  O  O49  1  0.08914200  0.32123100  0.58180200  1
  O  O50  1  0.09348600  0.83179700  0.25890500  1
  O  O51  1  0.09348600  0.66820300  0.75890500  1
  O  O52  1  0.09473100  0.01556000  0.15618400  1
  O  O53  1  0.09473100  0.48444000  0.65618400  1
  O  O54  1  0.13941900  0.21263000  0.39408400  1
  O  O55  1  0.13941900  0.28737000  0.89408400  1
  O  O56  1  0.18892100  0.44733400  0.29688000  1
  O  O57  1  0.18892100  0.05266600  0.79688000  1
  O  O58  1  0.20225500  0.68047200  0.14344800  1
  O  O59  1  0.20225500  0.81952800  0.64344800  1
  O  O60  1  0.19025800  0.76656400  0.46579100  1
  O  O61  1  0.19025800  0.73343600  0.96579100  1
  O  O62  1  0.24008000  0.01895000  0.58095700  1
  O  O63  1  0.24008000  0.48105000  0.08095700  1
  O  O64  1  0.25992000  0.51895000  0.58095700  1
  O  O65  1  0.25992000  0.98105000  0.08095700  1
  O  O66  1  0.30974200  0.23343600  0.96579100  1
  O  O67  1  0.30974200  0.26656400  0.46579100  1
  O  O68  1  0.29774500  0.18047200  0.14344800  1
  O  O69  1  0.29774500  0.31952800  0.64344800  1
  O  O70  1  0.31107900  0.94733400  0.29688000  1
  O  O71  1  0.31107900  0.55266600  0.79688000  1
  O  O72  1  0.36058100  0.71263000  0.39408400  1
  O  O73  1  0.36058100  0.78737000  0.89408400  1
  O  O74  1  0.40526900  0.98444000  0.65618400  1
  O  O75  1  0.40526900  0.51556000  0.15618400  1
  O  O76  1  0.40651400  0.33179700  0.25890500  1
  O  O77  1  0.40651400  0.16820300  0.75890500  1
  O  O78  1  0.41085800  0.67876900  0.08180200  1
  O  O79  1  0.41085800  0.82123100  0.58180200  1
  O  O80  1  0.41001900  0.09403200  0.84976600  1
  O  O81  1  0.41001900  0.40596800  0.34976600  1
  O  O82  1  0.41471600  0.86357000  0.98299300  1
  O  O83  1  0.41471600  0.63643000  0.48299300  1
  O  O84  1  0.40614000  0.59030600  0.27990700  1
  O  O85  1  0.40614000  0.90969400  0.77990700  1
  O  O86  1  0.42835900  0.60320800  0.95989400  1
  O  O87  1  0.42835900  0.89679200  0.45989400  1
  O  O88  1  0.57164100  0.39679200  0.04010600  1
  O  O89  1  0.57164100  0.10320800  0.54010600  1
  O  O90  1  0.59386000  0.09030600  0.22009300  1
  O  O91  1  0.59386000  0.40969400  0.72009300  1
  O  O92  1  0.58528400  0.13643000  0.01700700  1
  O  O93  1  0.58528400  0.36357000  0.51700700  1
  O  O94  1  0.58998100  0.59403200  0.65023400  1
  O  O95  1  0.58998100  0.90596800  0.15023400  1
  O  O96  1  0.58914200  0.17876900  0.41819800  1
  O  O97  1  0.58914200  0.32123100  0.91819800  1
  O  O98  1  0.59348600  0.83179700  0.24109500  1
  O  O99  1  0.59348600  0.66820300  0.74109500  1
  O  O100  1  0.59473100  0.01556000  0.34381600  1
  O  O101  1  0.59473100  0.48444000  0.84381600  1
  O  O102  1  0.63941900  0.21263000  0.10591600  1
  O  O103  1  0.63941900  0.28737000  0.60591600  1
  O  O104  1  0.68892100  0.44733400  0.20312000  1
  O  O105  1  0.68892100  0.05266600  0.70312000  1
  O  O106  1  0.70225500  0.68047200  0.35655200  1
  O  O107  1  0.70225500  0.81952800  0.85655200  1
  O  O108  1  0.69025800  0.76656400  0.03420900  1
  O  O109  1  0.69025800  0.73343600  0.53420900  1
  O  O110  1  0.74008000  0.48105000  0.41904300  1
  O  O111  1  0.74008000  0.01895000  0.91904300  1
  O  O112  1  0.75992000  0.98105000  0.41904300  1
  O  O113  1  0.75992000  0.51895000  0.91904300  1
  O  O114  1  0.80974200  0.26656400  0.03420900  1
  O  O115  1  0.80974200  0.23343600  0.53420900  1
  O  O116  1  0.79774500  0.18047200  0.35655200  1
  O  O117  1  0.79774500  0.31952800  0.85655200  1
  O  O118  1  0.81107900  0.55266600  0.70312000  1
  O  O119  1  0.81107900  0.94733400  0.20312000  1
  O  O120  1  0.86058100  0.71263000  0.10591600  1
  O  O121  1  0.86058100  0.78737000  0.60591600  1
  O  O122  1  0.90526900  0.51556000  0.34381600  1
  O  O123  1  0.90526900  0.98444000  0.84381600  1
  O  O124  1  0.90651400  0.33179700  0.24109500  1
  O  O125  1  0.90651400  0.16820300  0.74109500  1
  O  O126  1  0.91085800  0.67876900  0.41819800  1
  O  O127  1  0.91085800  0.82123100  0.91819800  1
  O  O128  1  0.91001900  0.40596800  0.15023400  1
  O  O129  1  0.91001900  0.09403200  0.65023400  1
  O  O130  1  0.91471600  0.63643000  0.01700700  1
  O  O131  1  0.91471600  0.86357000  0.51700700  1
  O  O132  1  0.90614000  0.59030600  0.22009300  1
  O  O133  1  0.90614000  0.90969400  0.72009300  1
  O  O134  1  0.92835900  0.60320800  0.54010600  1
  O  O135  1  0.92835900  0.89679200  0.04010600  1
