# generated using pymatgen
data_Ba2YF7
_symmetry_space_group_name_H-M   'P 1'
_cell_length_a   13.22854400
_cell_length_b   5.93184000
_cell_length_c   8.92422279
_cell_angle_alpha   89.34407324
_cell_angle_beta   90.00000000
_cell_angle_gamma   90.00000000
_symmetry_Int_Tables_number   1
_chemical_formula_structural   Ba2YF7
_chemical_formula_sum   'Ba8 Y4 F28'
_cell_volume   700.23436188
_cell_formula_units_Z   4
loop_
 _symmetry_equiv_pos_site_id
 _symmetry_equiv_pos_as_xyz
  1  'x, y, z'
loop_
 _atom_site_type_symbol
 _atom_site_label
 _atom_site_symmetry_multiplicity
 _atom_site_fract_x
 _atom_site_fract_y
 _atom_site_fract_z
 _atom_site_occupancy
  Ba  Ba0  1  0.22034200  0.73446900  0.05263300  1
  Ba  Ba1  1  0.56251800  0.73782900  0.17660000  1
  Ba  Ba2  1  0.06251800  0.26217100  0.32340000  1
  Ba  Ba3  1  0.72034200  0.26553100  0.44736700  1
  Ba  Ba4  1  0.27965800  0.73446900  0.55263300  1
  Ba  Ba5  1  0.93748200  0.73782900  0.67660000  1
  Ba  Ba6  1  0.43748200  0.26217100  0.82340000  1
  Ba  Ba7  1  0.77965800  0.26553100  0.94736700  1
  Y  Y8  1  0.87436100  0.77904600  0.21578200  1
  Y  Y9  1  0.37436100  0.22095400  0.28421800  1
  Y  Y10  1  0.62563900  0.77904600  0.71578200  1
  Y  Y11  1  0.12563900  0.22095400  0.78421800  1
  F  F12  1  0.13985800  0.29411200  0.02728000  1
  F  F13  1  0.39439500  0.00836000  0.07620900  1
  F  F14  1  0.39520300  0.47873200  0.09213000  1
  F  F15  1  0.92470400  0.11882100  0.13099200  1
  F  F16  1  0.74655800  0.51984200  0.19660400  1
  F  F17  1  0.73171300  0.99136300  0.20481600  1
  F  F18  1  0.03854900  0.70021300  0.21184100  1
  F  F19  1  0.53854900  0.29978700  0.28815900  1
  F  F20  1  0.23171300  0.00863700  0.29518400  1
  F  F21  1  0.24655800  0.48015800  0.30339600  1
  F  F22  1  0.42470400  0.88117900  0.36900800  1
  F  F23  1  0.89520300  0.52126800  0.40787000  1
  F  F24  1  0.89439500  0.99164000  0.42379100  1
  F  F25  1  0.63985800  0.70588800  0.47272000  1
  F  F26  1  0.36014200  0.29411200  0.52728000  1
  F  F27  1  0.10560500  0.00836000  0.57620900  1
  F  F28  1  0.10479700  0.47873200  0.59213000  1
  F  F29  1  0.57529600  0.11882100  0.63099200  1
  F  F30  1  0.75344200  0.51984200  0.69660400  1
  F  F31  1  0.76828700  0.99136300  0.70481600  1
  F  F32  1  0.46145100  0.70021300  0.71184100  1
  F  F33  1  0.96145100  0.29978700  0.78815900  1
  F  F34  1  0.26828700  0.00863700  0.79518400  1
  F  F35  1  0.25344200  0.48015800  0.80339600  1
  F  F36  1  0.07529600  0.88117900  0.86900800  1
  F  F37  1  0.60479700  0.52126800  0.90787000  1
  F  F38  1  0.60560500  0.99164000  0.92379100  1
  F  F39  1  0.86014200  0.70588800  0.97272000  1
