# generated using pymatgen
data_Ag(H7O4)2
_symmetry_space_group_name_H-M   'P 1'
_cell_length_a   16.72050700
_cell_length_b   6.88933600
_cell_length_c   6.98712956
_cell_angle_alpha   87.29461365
_cell_angle_beta   90.00000000
_cell_angle_gamma   90.00000000
_symmetry_Int_Tables_number   1
_chemical_formula_structural   Ag(H7O4)2
_chemical_formula_sum   'Ag4 H56 O32'
_cell_volume   803.97267476
_cell_formula_units_Z   4
loop_
 _symmetry_equiv_pos_site_id
 _symmetry_equiv_pos_as_xyz
  1  'x, y, z'
loop_
 _atom_site_type_symbol
 _atom_site_label
 _atom_site_symmetry_multiplicity
 _atom_site_fract_x
 _atom_site_fract_y
 _atom_site_fract_z
 _atom_site_occupancy
  Ag  Ag0  1  0.25442500  0.02606400  0.46600100  1
  Ag  Ag1  1  0.24557500  0.52606400  0.46600100  1
  Ag  Ag2  1  0.75442500  0.47393600  0.53399900  1
  Ag  Ag3  1  0.74557500  0.97393600  0.53399900  1
  H  H4  1  0.08615300  0.17729400  0.02391600  1
  H  H5  1  0.41384700  0.67729400  0.02391600  1
  H  H6  1  0.88647100  0.31499400  0.07567500  1
  H  H7  1  0.87393500  0.08096600  0.10155100  1
  H  H8  1  0.61352900  0.81499400  0.07567500  1
  H  H9  1  0.62606500  0.58096600  0.10155100  1
  H  H10  1  0.27750800  0.28138300  0.13257500  1
  H  H11  1  0.22249200  0.78138300  0.13257500  1
  H  H12  1  0.04718800  0.33536500  0.16616600  1
  H  H13  1  0.45281200  0.83536500  0.16616600  1
  H  H14  1  0.54942300  0.15107000  0.20018400  1
  H  H15  1  0.18004100  0.27233900  0.19539100  1
  H  H16  1  0.95057700  0.65107000  0.20018400  1
  H  H17  1  0.64657700  0.31687200  0.21626900  1
  H  H18  1  0.31995900  0.77233900  0.19539100  1
  H  H19  1  0.85342300  0.81687200  0.21626900  1
  H  H20  1  0.78196000  0.22696600  0.24965800  1
  H  H21  1  0.71804000  0.72696600  0.24965800  1
  H  H22  1  0.44378300  0.07813700  0.35199000  1
  H  H23  1  0.08245100  0.07515900  0.36511700  1
  H  H24  1  0.94159700  0.46710800  0.34687700  1
  H  H25  1  0.05621700  0.57813700  0.35199000  1
  H  H26  1  0.41754900  0.57515900  0.36511700  1
  H  H27  1  0.55840300  0.96710800  0.34687700  1
  H  H28  1  0.58607800  0.45855300  0.39912200  1
  H  H29  1  0.91392200  0.95855300  0.39912200  1
  H  H30  1  0.40511600  0.25930600  0.45426200  1
  H  H31  1  0.09488400  0.75930600  0.45426200  1
  H  H32  1  0.90511600  0.24069400  0.54573800  1
  H  H33  1  0.59488400  0.74069400  0.54573800  1
  H  H34  1  0.08607800  0.04144700  0.60087800  1
  H  H35  1  0.41392200  0.54144700  0.60087800  1
  H  H36  1  0.44159700  0.03289200  0.65312300  1
  H  H37  1  0.58245100  0.42484100  0.63488300  1
  H  H38  1  0.94378300  0.42186300  0.64801000  1
  H  H39  1  0.05840300  0.53289200  0.65312300  1
  H  H40  1  0.91754900  0.92484100  0.63488300  1
  H  H41  1  0.55621700  0.92186300  0.64801000  1
  H  H42  1  0.28196000  0.27303400  0.75034200  1
  H  H43  1  0.21804000  0.77303400  0.75034200  1
  H  H44  1  0.14657700  0.18312800  0.78373100  1
  H  H45  1  0.68004100  0.22766100  0.80460900  1
  H  H46  1  0.35342300  0.68312800  0.78373100  1
  H  H47  1  0.04942300  0.34893000  0.79981600  1
  H  H48  1  0.81995900  0.72766100  0.80460900  1
  H  H49  1  0.45057700  0.84893000  0.79981600  1
  H  H50  1  0.54718800  0.16463500  0.83383400  1
  H  H51  1  0.95281200  0.66463500  0.83383400  1
  H  H52  1  0.77750800  0.21861700  0.86742500  1
  H  H53  1  0.72249200  0.71861700  0.86742500  1
  H  H54  1  0.37393500  0.41903400  0.89844900  1
  H  H55  1  0.38647100  0.18500600  0.92432500  1
  H  H56  1  0.12606500  0.91903400  0.89844900  1
  H  H57  1  0.11352900  0.68500600  0.92432500  1
  H  H58  1  0.58615300  0.32270600  0.97608400  1
  H  H59  1  0.91384700  0.82270600  0.97608400  1
  O  O60  1  0.84629900  0.21277500  0.06026700  1
  O  O61  1  0.65370100  0.71277500  0.06026700  1
  O  O62  1  0.08735300  0.23061800  0.16342700  1
  O  O63  1  0.59561400  0.37843000  0.17547600  1
  O  O64  1  0.41264700  0.73061800  0.16342700  1
  O  O65  1  0.90438600  0.87843000  0.17547600  1
  O  O66  1  0.53127300  0.01235500  0.22297500  1
  O  O67  1  0.96872700  0.51235500  0.22297500  1
  O  O68  1  0.23847200  0.28018800  0.24262000  1
  O  O69  1  0.26152800  0.78018800  0.24262000  1
  O  O70  1  0.73943000  0.23004900  0.35157700  1
  O  O71  1  0.76057000  0.73004900  0.35157700  1
  O  O72  1  0.40365500  0.11208800  0.44982600  1
  O  O73  1  0.09634500  0.61208800  0.44982600  1
  O  O74  1  0.40164500  0.48468400  0.47340600  1
  O  O75  1  0.09835500  0.98468400  0.47340600  1
  O  O76  1  0.90164500  0.01531600  0.52659400  1
  O  O77  1  0.59835500  0.51531600  0.52659400  1
  O  O78  1  0.90365500  0.38791200  0.55017400  1
  O  O79  1  0.59634500  0.88791200  0.55017400  1
  O  O80  1  0.23943000  0.26995100  0.64842300  1
  O  O81  1  0.26057000  0.76995100  0.64842300  1
  O  O82  1  0.73847200  0.21981200  0.75738000  1
  O  O83  1  0.76152800  0.71981200  0.75738000  1
  O  O84  1  0.03127300  0.48764500  0.77702500  1
  O  O85  1  0.46872700  0.98764500  0.77702500  1
  O  O86  1  0.09561400  0.12157000  0.82452400  1
  O  O87  1  0.58735300  0.26938200  0.83657300  1
  O  O88  1  0.40438600  0.62157000  0.82452400  1
  O  O89  1  0.91264700  0.76938200  0.83657300  1
  O  O90  1  0.34629900  0.28722500  0.93973300  1
  O  O91  1  0.15370100  0.78722500  0.93973300  1
