# generated using pymatgen
data_HoAsO4
_symmetry_space_group_name_H-M   'P 1'
_cell_length_a   6.97495400
_cell_length_b   6.64653100
_cell_length_c   8.11125722
_cell_angle_alpha   53.71747642
_cell_angle_beta   90.00000000
_cell_angle_gamma   90.00000000
_symmetry_Int_Tables_number   1
_chemical_formula_structural   HoAsO4
_chemical_formula_sum   'Ho4 As4 O16'
_cell_volume   303.12253907
_cell_formula_units_Z   4
loop_
 _symmetry_equiv_pos_site_id
 _symmetry_equiv_pos_as_xyz
  1  'x, y, z'
loop_
 _atom_site_type_symbol
 _atom_site_label
 _atom_site_symmetry_multiplicity
 _atom_site_fract_x
 _atom_site_fract_y
 _atom_site_fract_z
 _atom_site_occupancy
  Ho  Ho0  1  0.85417600  0.80661100  0.78217900  1
  Ho  Ho1  1  0.35417600  0.19338900  0.71782100  1
  Ho  Ho2  1  0.64582400  0.80661100  0.28217900  1
  Ho  Ho3  1  0.14582400  0.19338900  0.21782100  1
  As  As4  1  0.83876800  0.31056500  0.80109300  1
  As  As5  1  0.33876800  0.68943500  0.69890700  1
  As  As6  1  0.66123200  0.31056500  0.30109300  1
  As  As7  1  0.16123200  0.68943500  0.19890700  1
  O  O8  1  0.89540500  0.35657600  0.98359600  1
  O  O9  1  0.28560100  0.38198400  0.88820700  1
  O  O10  1  0.64978100  0.10490900  0.89802900  1
  O  O11  1  0.50801600  0.83748800  0.74695000  1
  O  O12  1  0.78560100  0.61801600  0.61179300  1
  O  O13  1  0.00801600  0.16251200  0.75305000  1
  O  O14  1  0.14978100  0.89509100  0.60197100  1
  O  O15  1  0.39540500  0.64342400  0.51640400  1
  O  O16  1  0.60459500  0.35657600  0.48359600  1
  O  O17  1  0.85021900  0.10490900  0.39802900  1
  O  O18  1  0.99198400  0.83748800  0.24695000  1
  O  O19  1  0.21439900  0.38198400  0.38820700  1
  O  O20  1  0.49198400  0.16251200  0.25305000  1
  O  O21  1  0.35021900  0.89509100  0.10197100  1
  O  O22  1  0.71439900  0.61801600  0.11179300  1
  O  O23  1  0.10459500  0.64342400  0.01640400  1
