# generated using pymatgen
data_Na3CoO3
_symmetry_space_group_name_H-M   'P 1'
_cell_length_a   10.99460100
_cell_length_b   3.99373000
_cell_length_c   10.16034827
_cell_angle_alpha   78.27780781
_cell_angle_beta   90.00000000
_cell_angle_gamma   90.00000000
_symmetry_Int_Tables_number   1
_chemical_formula_structural   Na3CoO3
_chemical_formula_sum   'Na12 Co4 O12'
_cell_volume   436.83096981
_cell_formula_units_Z   4
loop_
 _symmetry_equiv_pos_site_id
 _symmetry_equiv_pos_as_xyz
  1  'x, y, z'
loop_
 _atom_site_type_symbol
 _atom_site_label
 _atom_site_symmetry_multiplicity
 _atom_site_fract_x
 _atom_site_fract_y
 _atom_site_fract_z
 _atom_site_occupancy
  Na  Na0  1  0.42960700  0.90311800  0.63647200  1
  Na  Na1  1  0.98502600  0.72201200  0.61622000  1
  Na  Na2  1  0.23023200  0.50040700  0.97993500  1
  Na  Na3  1  0.07039300  0.90311800  0.13647200  1
  Na  Na4  1  0.51497400  0.72201200  0.11622000  1
  Na  Na5  1  0.73023200  0.49959300  0.52006500  1
  Na  Na6  1  0.26976800  0.50040700  0.47993500  1
  Na  Na7  1  0.48502600  0.27798800  0.88378000  1
  Na  Na8  1  0.92960700  0.09688200  0.86352800  1
  Na  Na9  1  0.76976800  0.49959300  0.02006500  1
  Na  Na10  1  0.01497400  0.27798800  0.38378000  1
  Na  Na11  1  0.57039300  0.09688200  0.36352800  1
  Co  Co12  1  0.68965800  0.81042800  0.75452100  1
  Co  Co13  1  0.81034200  0.81042800  0.25452100  1
  Co  Co14  1  0.18965800  0.18957200  0.74547900  1
  Co  Co15  1  0.31034200  0.18957200  0.24547900  1
  O  O16  1  0.63765100  0.97175000  0.58904800  1
  O  O17  1  0.59136500  0.77096800  0.89601200  1
  O  O18  1  0.86234900  0.97175000  0.08904800  1
  O  O19  1  0.83865700  0.63667300  0.78437700  1
  O  O20  1  0.90863500  0.77096800  0.39601200  1
  O  O21  1  0.66134300  0.63667300  0.28437700  1
  O  O22  1  0.33865700  0.36332700  0.71562300  1
  O  O23  1  0.09136500  0.22903200  0.60398800  1
  O  O24  1  0.16134300  0.36332700  0.21562300  1
  O  O25  1  0.13765100  0.02825000  0.91095200  1
  O  O26  1  0.40863500  0.22903200  0.10398800  1
  O  O27  1  0.36234900  0.02825000  0.41095200  1
