# generated using pymatgen
data_PrHfO4
_symmetry_space_group_name_H-M   'P 1'
_cell_length_a   7.68046100
_cell_length_b   7.68046100
_cell_length_c   10.73774400
_cell_angle_alpha   90.00000000
_cell_angle_beta   90.00000000
_cell_angle_gamma   90.00000000
_symmetry_Int_Tables_number   1
_chemical_formula_structural   PrHfO4
_chemical_formula_sum   'Pr8 Hf8 O32'
_cell_volume   633.41394752
_cell_formula_units_Z   8
loop_
 _symmetry_equiv_pos_site_id
 _symmetry_equiv_pos_as_xyz
  1  'x, y, z'
loop_
 _atom_site_type_symbol
 _atom_site_label
 _atom_site_symmetry_multiplicity
 _atom_site_fract_x
 _atom_site_fract_y
 _atom_site_fract_z
 _atom_site_occupancy
  Pr  Pr0  1  0.00149600  0.24944600  0.87443400  1
  Pr  Pr1  1  0.50145700  0.25062700  0.87657800  1
  Pr  Pr2  1  0.75055400  0.00149600  0.62443400  1
  Pr  Pr3  1  0.74937300  0.50145700  0.62657800  1
  Pr  Pr4  1  0.99850400  0.75055400  0.37443400  1
  Pr  Pr5  1  0.49854300  0.74937300  0.37657800  1
  Pr  Pr6  1  0.24944600  0.99850400  0.12443400  1
  Pr  Pr7  1  0.25062700  0.49854300  0.12657800  1
  Hf  Hf8  1  0.99476900  0.76199000  0.87610500  1
  Hf  Hf9  1  0.49753100  0.73911900  0.87604400  1
  Hf  Hf10  1  0.23801000  0.99476900  0.62610500  1
  Hf  Hf11  1  0.26088100  0.49753100  0.62604400  1
  Hf  Hf12  1  0.00523100  0.23801000  0.37610500  1
  Hf  Hf13  1  0.50246900  0.26088100  0.37604400  1
  Hf  Hf14  1  0.76199000  0.00523100  0.12610500  1
  Hf  Hf15  1  0.73911900  0.50246900  0.12604400  1
  O  O16  1  0.24499800  0.75530300  0.96849800  1
  O  O17  1  0.51892000  0.52676000  0.99898000  1
  O  O18  1  0.96865300  0.52995400  0.99878700  1
  O  O19  1  0.25196800  0.24933900  0.00050500  1
  O  O20  1  0.77600700  0.72688500  0.00797400  1
  O  O21  1  0.97383000  0.98427900  0.00023000  1
  O  O22  1  0.54978200  0.95055300  0.99999900  1
  O  O23  1  0.04944700  0.54978200  0.74999900  1
  O  O24  1  0.01572100  0.97383000  0.75023000  1
  O  O25  1  0.27311500  0.77600700  0.75797400  1
  O  O26  1  0.74547200  0.74371500  0.78621100  1
  O  O27  1  0.47004600  0.96865300  0.74878700  1
  O  O28  1  0.75066100  0.25196800  0.75050500  1
  O  O29  1  0.24469700  0.24499800  0.71849800  1
  O  O30  1  0.47324000  0.51892000  0.74898000  1
  O  O31  1  0.25628500  0.74547200  0.53621100  1
  O  O32  1  0.74803200  0.75066100  0.50050500  1
  O  O33  1  0.22399300  0.27311500  0.50797400  1
  O  O34  1  0.48108000  0.47324000  0.49898000  1
  O  O35  1  0.45021800  0.04944700  0.49999900  1
  O  O36  1  0.03134700  0.47004600  0.49878700  1
  O  O37  1  0.02617000  0.01572100  0.50023000  1
  O  O38  1  0.75500200  0.24469700  0.46849800  1
  O  O39  1  0.95055300  0.45021800  0.24999900  1
  O  O40  1  0.98427900  0.02617000  0.25023000  1
  O  O41  1  0.72688500  0.22399300  0.25797400  1
  O  O42  1  0.25452800  0.25628500  0.28621100  1
  O  O43  1  0.52995400  0.03134700  0.24878700  1
  O  O44  1  0.24933900  0.74803200  0.25050500  1
  O  O45  1  0.75530300  0.75500200  0.21849800  1
  O  O46  1  0.52676000  0.48108000  0.24898000  1
  O  O47  1  0.74371500  0.25452800  0.03621100  1
