# generated using pymatgen
data_V3OF11
_symmetry_space_group_name_H-M   'P 1'
_cell_length_a   5.26961100
_cell_length_b   5.45281395
_cell_length_c   14.76027724
_cell_angle_alpha   100.32852095
_cell_angle_beta   90.02615138
_cell_angle_gamma   90.06897165
_symmetry_Int_Tables_number   1
_chemical_formula_structural   V3OF11
_chemical_formula_sum   'V6 O2 F22'
_cell_volume   417.25192473
_cell_formula_units_Z   2
loop_
 _symmetry_equiv_pos_site_id
 _symmetry_equiv_pos_as_xyz
  1  'x, y, z'
loop_
 _atom_site_type_symbol
 _atom_site_label
 _atom_site_symmetry_multiplicity
 _atom_site_fract_x
 _atom_site_fract_y
 _atom_site_fract_z
 _atom_site_occupancy
  V  V0  1  0.99004500  0.00085100  0.99384000  1
  V  V1  1  0.49182900  0.84459300  0.66561400  1
  V  V2  1  0.99977300  0.66640600  0.33293800  1
  V  V3  1  0.49507500  0.50251100  0.00128000  1
  V  V4  1  0.97531800  0.37398400  0.66962800  1
  V  V5  1  0.49965600  0.16615400  0.33269400  1
  O  O6  1  0.91924600  0.95447900  0.88546200  1
  O  O7  1  0.79464800  0.62516500  0.68908400  1
  F  F8  1  0.80152300  0.97626000  0.35803400  1
  F  F9  1  0.70760300  0.80667000  0.02625600  1
  F  F10  1  0.30193800  0.85537400  0.30854600  1
  F  F11  1  0.58787200  0.78432800  0.54902600  1
  F  F12  1  0.91233800  0.62391000  0.21555300  1
  F  F13  1  0.42382600  0.87131700  0.78467100  1
  F  F14  1  0.08566900  0.70628500  0.45064800  1
  F  F15  1  0.41792700  0.54369000  0.11878100  1
  F  F16  1  0.69813700  0.47655200  0.35780700  1
  F  F17  1  0.79706900  0.30259100  0.02618600  1
  F  F18  1  0.20154500  0.69627800  0.97508400  1
  F  F19  1  0.28631600  0.53006300  0.64253100  1
  F  F20  1  0.19850500  0.35635300  0.30840000  1
  F  F21  1  0.58925600  0.45712200  0.88443400  1
  F  F22  1  0.92745200  0.27273700  0.55028500  1
  F  F23  1  0.58732800  0.12402800  0.21551700  1
  F  F24  1  0.09304700  0.36575300  0.78178000  1
  F  F25  1  0.41561900  0.20856200  0.45059000  1
  F  F26  1  0.09180600  0.04013100  0.11514100  1
  F  F27  1  0.71004600  0.14342900  0.69148200  1
  F  F28  1  0.29261700  0.19584700  0.97564200  1
  F  F29  1  0.20697100  0.02857900  0.64306500  1
