# generated using pymatgen
data_Na6Ti2O7
_symmetry_space_group_name_H-M   'P 1'
_cell_length_a   5.40604900
_cell_length_b   8.92173300
_cell_length_c   10.36895027
_cell_angle_alpha   62.71141267
_cell_angle_beta   90.00000000
_cell_angle_gamma   90.00000000
_symmetry_Int_Tables_number   1
_chemical_formula_structural   Na6Ti2O7
_chemical_formula_sum   'Na12 Ti4 O14'
_cell_volume   444.45046112
_cell_formula_units_Z   2
loop_
 _symmetry_equiv_pos_site_id
 _symmetry_equiv_pos_as_xyz
  1  'x, y, z'
loop_
 _atom_site_type_symbol
 _atom_site_label
 _atom_site_symmetry_multiplicity
 _atom_site_fract_x
 _atom_site_fract_y
 _atom_site_fract_z
 _atom_site_occupancy
  Na  Na0  1  0.22486400  0.33400800  0.88009600  1
  Na  Na1  1  0.77888300  0.57157200  0.86539800  1
  Na  Na2  1  0.80335500  0.06660200  0.84551600  1
  Na  Na3  1  0.77888300  0.42842800  0.63460200  1
  Na  Na4  1  0.22486400  0.66599200  0.61990400  1
  Na  Na5  1  0.80335500  0.93339800  0.65448400  1
  Na  Na6  1  0.19664500  0.06660200  0.34551600  1
  Na  Na7  1  0.77513600  0.33400800  0.38009600  1
  Na  Na8  1  0.22111700  0.57157200  0.36539800  1
  Na  Na9  1  0.19664500  0.93339800  0.15448400  1
  Na  Na10  1  0.22111700  0.42842800  0.13460200  1
  Na  Na11  1  0.77513600  0.66599200  0.11990400  1
  Ti  Ti12  1  0.30559600  0.78819600  0.89554300  1
  Ti  Ti13  1  0.30559600  0.21180400  0.60445700  1
  Ti  Ti14  1  0.69440400  0.78819600  0.39554300  1
  Ti  Ti15  1  0.69440400  0.21180400  0.10445700  1
  O  O16  1  0.78960300  0.27285600  0.91735300  1
  O  O17  1  0.22555000  0.61312100  0.85955600  1
  O  O18  1  0.63823200  0.80849000  0.88805100  1
  O  O19  1  0.22555000  0.38687900  0.64044400  1
  O  O20  1  0.17052100  0.00000000  0.75000000  1
  O  O21  1  0.78960300  0.72714400  0.58264700  1
  O  O22  1  0.63823200  0.19151000  0.61194900  1
  O  O23  1  0.36176800  0.80849000  0.38805100  1
  O  O24  1  0.21039700  0.27285600  0.41735300  1
  O  O25  1  0.82947900  0.00000000  0.25000000  1
  O  O26  1  0.77445000  0.61312100  0.35955600  1
  O  O27  1  0.36176800  0.19151000  0.11194900  1
  O  O28  1  0.77445000  0.38687900  0.14044400  1
  O  O29  1  0.21039700  0.72714400  0.08264700  1
