# generated using pymatgen
data_La2Nb2N2O5
_symmetry_space_group_name_H-M   'P 1'
_cell_length_a   5.70178400
_cell_length_b   8.06580054
_cell_length_c   13.76007472
_cell_angle_alpha   81.56828833
_cell_angle_beta   89.51168347
_cell_angle_gamma   89.85301328
_symmetry_Int_Tables_number   1
_chemical_formula_structural   La2Nb2N2O5
_chemical_formula_sum   'La8 Nb8 N8 O20'
_cell_volume   625.95508906
_cell_formula_units_Z   4
loop_
 _symmetry_equiv_pos_site_id
 _symmetry_equiv_pos_as_xyz
  1  'x, y, z'
loop_
 _atom_site_type_symbol
 _atom_site_label
 _atom_site_symmetry_multiplicity
 _atom_site_fract_x
 _atom_site_fract_y
 _atom_site_fract_z
 _atom_site_occupancy
  La  La0  1  0.65895500  0.86492600  0.57093400  1
  La  La1  1  0.25124300  0.77521000  0.90335900  1
  La  La2  1  0.74324800  0.72188700  0.12037000  1
  La  La3  1  0.23840800  0.65573200  0.38621200  1
  La  La4  1  0.72185900  0.33551200  0.61493300  1
  La  La5  1  0.24948300  0.27816000  0.87475200  1
  La  La6  1  0.73054500  0.22366200  0.09312100  1
  La  La7  1  0.17376600  0.14024000  0.43254100  1
  Nb  Nb8  1  0.74600800  0.93549000  0.31534200  1
  Nb  Nb9  1  0.25088700  0.98473200  0.10118000  1
  Nb  Nb10  1  0.21476300  0.59997400  0.67351100  1
  Nb  Nb11  1  0.74160100  0.51171200  0.88285300  1
  Nb  Nb12  1  0.23116200  0.46540000  0.11813000  1
  Nb  Nb13  1  0.71954500  0.41154300  0.32449700  1
  Nb  Nb14  1  0.75378800  0.03304300  0.87927900  1
  Nb  Nb15  1  0.20913900  0.07401600  0.67310900  1
  N  N16  1  0.30882600  0.81980400  0.69785600  1
  N  N17  1  0.81738300  0.27560900  0.91312500  1
  N  N18  1  0.45281000  0.03747500  0.98867900  1
  N  N19  1  0.43989000  0.12878800  0.57042900  1
  N  N20  1  0.17817900  0.22740700  0.11233800  1
  N  N21  1  0.80119700  0.17411100  0.30462700  1
  N  N22  1  0.05912700  0.02400800  0.82395800  1
  N  N23  1  0.94906800  0.08727900  0.58666400  1
  O  O24  1  0.46023800  0.90893000  0.40604500  1
  O  O25  1  0.54517800  0.97077000  0.18742500  1
  O  O26  1  0.68027500  0.77492700  0.89757200  1
  O  O27  1  0.94812400  0.86524400  0.42835600  1
  O  O28  1  0.95436900  0.95386800  0.02513300  1
  O  O29  1  0.01679200  0.87672200  0.22793700  1
  O  O30  1  0.92071300  0.62290100  0.61269200  1
  O  O31  1  0.05754500  0.56639200  0.82220100  1
  O  O32  1  0.32125800  0.72370500  0.09020300  1
  O  O33  1  0.64187600  0.66648000  0.30271600  1
  O  O34  1  0.41577400  0.59086200  0.55814900  1
  O  O35  1  0.46566100  0.46983700  0.98189800  1
  O  O36  1  0.54107100  0.49846000  0.77312800  1
  O  O37  1  0.03368000  0.50243300  0.22859400  1
  O  O38  1  0.96804100  0.53735000  0.02244900  1
  O  O39  1  0.92210000  0.41407600  0.43533300  1
  O  O40  1  0.15042100  0.32893500  0.69947500  1
  O  O41  1  0.55781100  0.43623600  0.17814000  1
  O  O42  1  0.42226500  0.38230300  0.38560200  1
  O  O43  1  0.55094800  0.12385000  0.77515100  1
