# generated using pymatgen
data_B3H3SeO9
_symmetry_space_group_name_H-M   'P 1'
_cell_length_a   8.95957700
_cell_length_b   11.92775400
_cell_length_c   14.27075300
_cell_angle_alpha   90.00000000
_cell_angle_beta   90.00000000
_cell_angle_gamma   90.00000000
_symmetry_Int_Tables_number   1
_chemical_formula_structural   B3H3SeO9
_chemical_formula_sum   'B24 H24 Se8 O72'
_cell_volume   1525.08155713
_cell_formula_units_Z   8
loop_
 _symmetry_equiv_pos_site_id
 _symmetry_equiv_pos_as_xyz
  1  'x, y, z'
loop_
 _atom_site_type_symbol
 _atom_site_label
 _atom_site_symmetry_multiplicity
 _atom_site_fract_x
 _atom_site_fract_y
 _atom_site_fract_z
 _atom_site_occupancy
  B  B0  1  0.96716200  0.14881500  0.58153800  1
  B  B1  1  0.03283800  0.14881500  0.08153800  1
  B  B2  1  0.53667200  0.14644400  0.07336500  1
  B  B3  1  0.46332800  0.14644400  0.57336500  1
  B  B4  1  0.91414600  0.24510900  0.94820800  1
  B  B5  1  0.08585400  0.24510900  0.44820800  1
  B  B6  1  0.41414600  0.25489100  0.94820800  1
  B  B7  1  0.58585400  0.25489100  0.44820800  1
  B  B8  1  0.03667200  0.35355600  0.07336500  1
  B  B9  1  0.96332800  0.35355600  0.57336500  1
  B  B10  1  0.53283800  0.35118500  0.08153800  1
  B  B11  1  0.46716200  0.35118500  0.58153800  1
  B  B12  1  0.46716200  0.64881500  0.91846200  1
  B  B13  1  0.53283800  0.64881500  0.41846200  1
  B  B14  1  0.03667200  0.64644400  0.42663500  1
  B  B15  1  0.96332800  0.64644400  0.92663500  1
  B  B16  1  0.41414600  0.74510900  0.55179200  1
  B  B17  1  0.58585400  0.74510900  0.05179200  1
  B  B18  1  0.08585400  0.75489100  0.05179200  1
  B  B19  1  0.91414600  0.75489100  0.55179200  1
  B  B20  1  0.46332800  0.85355600  0.92663500  1
  B  B21  1  0.53667200  0.85355600  0.42663500  1
  B  B22  1  0.03283800  0.85118500  0.41846200  1
  B  B23  1  0.96716200  0.85118500  0.91846200  1
  H  H24  1  0.06252500  0.98580900  0.08837300  1
  H  H25  1  0.93747500  0.98580900  0.58837300  1
  H  H26  1  0.56163300  0.01914400  0.42101600  1
  H  H27  1  0.43836700  0.01914400  0.92101600  1
  H  H28  1  0.29410300  0.20243600  0.70266900  1
  H  H29  1  0.70589700  0.20243600  0.20266900  1
  H  H30  1  0.20589700  0.29756400  0.20266900  1
  H  H31  1  0.79410300  0.29756400  0.70266900  1
  H  H32  1  0.06163300  0.48085600  0.42101600  1
  H  H33  1  0.93836700  0.48085600  0.92101600  1
  H  H34  1  0.56252500  0.51419100  0.08837300  1
  H  H35  1  0.43747500  0.51419100  0.58837300  1
  H  H36  1  0.43747500  0.48580900  0.91162700  1
  H  H37  1  0.56252500  0.48580900  0.41162700  1
  H  H38  1  0.06163300  0.51914400  0.07898400  1
  H  H39  1  0.93836700  0.51914400  0.57898400  1
  H  H40  1  0.79410300  0.70243600  0.79733100  1
  H  H41  1  0.20589700  0.70243600  0.29733100  1
  H  H42  1  0.29410300  0.79756400  0.79733100  1
  H  H43  1  0.70589700  0.79756400  0.29733100  1
  H  H44  1  0.43836700  0.98085600  0.57898400  1
  H  H45  1  0.56163300  0.98085600  0.07898400  1
  H  H46  1  0.06252500  0.01419100  0.41162700  1
  H  H47  1  0.93747500  0.01419100  0.91162700  1
  Se  Se48  1  0.34047000  0.22592500  0.32341600  1
  Se  Se49  1  0.65953000  0.22592500  0.82341600  1
  Se  Se50  1  0.15953000  0.27407500  0.82341600  1
  Se  Se51  1  0.84047000  0.27407500  0.32341600  1
  Se  Se52  1  0.15953000  0.72592500  0.67658400  1
  Se  Se53  1  0.84047000  0.72592500  0.17658400  1
  Se  Se54  1  0.34047000  0.77407500  0.17658400  1
  Se  Se55  1  0.65953000  0.77407500  0.67658400  1
  O  O56  1  0.41339400  0.05077300  0.61228000  1
  O  O57  1  0.58660600  0.05077300  0.11228000  1
  O  O58  1  0.08637000  0.05535200  0.12211300  1
  O  O59  1  0.91363000  0.05535200  0.62211300  1
  O  O60  1  0.32710300  0.10028200  0.28435800  1
  O  O61  1  0.67289700  0.10028200  0.78435800  1
  O  O62  1  0.94286800  0.14717700  0.00251700  1
  O  O63  1  0.05713200  0.14717700  0.50251700  1
  O  O64  1  0.54178400  0.15025000  0.48963300  1
  O  O65  1  0.45821600  0.15025000  0.98963300  1
  O  O66  1  0.78964000  0.17124000  0.24344400  1
  O  O67  1  0.21036000  0.17124000  0.74344400  1
  O  O68  1  0.01717900  0.22926100  0.34886700  1
  O  O69  1  0.98282100  0.22926100  0.84886700  1
  O  O70  1  0.25297600  0.25412400  0.42807100  1
  O  O71  1  0.74702400  0.25412400  0.92807100  1
  O  O72  1  0.42759000  0.24623000  0.62073600  1
  O  O73  1  0.57241000  0.24623000  0.12073600  1
  O  O74  1  0.07241000  0.25377000  0.12073600  1
  O  O75  1  0.92759000  0.25377000  0.62073600  1
  O  O76  1  0.75297600  0.24587600  0.42807100  1
  O  O77  1  0.24702400  0.24587600  0.92807100  1
  O  O78  1  0.48282100  0.27073900  0.84886700  1
  O  O79  1  0.51717900  0.27073900  0.34886700  1
  O  O80  1  0.28964000  0.32876000  0.24344400  1
  O  O81  1  0.71036000  0.32876000  0.74344400  1
  O  O82  1  0.04178400  0.34975000  0.48963300  1
  O  O83  1  0.95821600  0.34975000  0.98963300  1
  O  O84  1  0.55713200  0.35282300  0.50251700  1
  O  O85  1  0.44286800  0.35282300  0.00251700  1
  O  O86  1  0.82710300  0.39971800  0.28435800  1
  O  O87  1  0.17289700  0.39971800  0.78435800  1
  O  O88  1  0.58637000  0.44464800  0.12211300  1
  O  O89  1  0.41363000  0.44464800  0.62211300  1
  O  O90  1  0.08660600  0.44922700  0.11228000  1
  O  O91  1  0.91339400  0.44922700  0.61228000  1
  O  O92  1  0.08660600  0.55077300  0.38772000  1
  O  O93  1  0.91339400  0.55077300  0.88772000  1
  O  O94  1  0.58637000  0.55535200  0.37788700  1
  O  O95  1  0.41363000  0.55535200  0.87788700  1
  O  O96  1  0.82710300  0.60028200  0.21564200  1
  O  O97  1  0.17289700  0.60028200  0.71564200  1
  O  O98  1  0.44286800  0.64717700  0.49748300  1
  O  O99  1  0.55713200  0.64717700  0.99748300  1
  O  O100  1  0.04178400  0.65025000  0.01036700  1
  O  O101  1  0.95821600  0.65025000  0.51036700  1
  O  O102  1  0.28964000  0.67124000  0.25655600  1
  O  O103  1  0.71036000  0.67124000  0.75655600  1
  O  O104  1  0.48282100  0.72926100  0.65113300  1
  O  O105  1  0.51717900  0.72926100  0.15113300  1
  O  O106  1  0.24702400  0.75412400  0.57192900  1
  O  O107  1  0.75297600  0.75412400  0.07192900  1
  O  O108  1  0.92759000  0.74623000  0.87926400  1
  O  O109  1  0.07241000  0.74623000  0.37926400  1
  O  O110  1  0.42759000  0.75377000  0.87926400  1
  O  O111  1  0.57241000  0.75377000  0.37926400  1
  O  O112  1  0.25297600  0.74587600  0.07192900  1
  O  O113  1  0.74702400  0.74587600  0.57192900  1
  O  O114  1  0.01717900  0.77073900  0.15113300  1
  O  O115  1  0.98282100  0.77073900  0.65113300  1
  O  O116  1  0.21036000  0.82876000  0.75655600  1
  O  O117  1  0.78964000  0.82876000  0.25655600  1
  O  O118  1  0.45821600  0.84975000  0.51036700  1
  O  O119  1  0.54178400  0.84975000  0.01036700  1
  O  O120  1  0.05713200  0.85282300  0.99748300  1
  O  O121  1  0.94286800  0.85282300  0.49748300  1
  O  O122  1  0.32710300  0.89971800  0.21564200  1
  O  O123  1  0.67289700  0.89971800  0.71564200  1
  O  O124  1  0.08637000  0.94464800  0.37788700  1
  O  O125  1  0.91363000  0.94464800  0.87788700  1
  O  O126  1  0.41339400  0.94922700  0.88772000  1
  O  O127  1  0.58660600  0.94922700  0.38772000  1
