# generated using pymatgen
data_Ba5Y3F19
_symmetry_space_group_name_H-M   'P 1'
_cell_length_a   8.24277100
_cell_length_b   11.69693204
_cell_length_c   11.83845173
_cell_angle_alpha   84.25879966
_cell_angle_beta   69.73710836
_cell_angle_gamma   74.95812226
_symmetry_Int_Tables_number   1
_chemical_formula_structural   Ba5Y3F19
_chemical_formula_sum   'Ba10 Y6 F38'
_cell_volume   1034.01486582
_cell_formula_units_Z   2
loop_
 _symmetry_equiv_pos_site_id
 _symmetry_equiv_pos_as_xyz
  1  'x, y, z'
loop_
 _atom_site_type_symbol
 _atom_site_label
 _atom_site_symmetry_multiplicity
 _atom_site_fract_x
 _atom_site_fract_y
 _atom_site_fract_z
 _atom_site_occupancy
  Ba  Ba0  1  0.28151200  0.46194900  0.48013600  1
  Ba  Ba1  1  0.25862700  0.17197400  0.27381600  1
  Ba  Ba2  1  0.27012200  0.66937400  0.80608000  1
  Ba  Ba3  1  0.57086800  0.71949300  0.17325200  1
  Ba  Ba4  1  0.94819500  0.81473700  0.32326300  1
  Ba  Ba5  1  0.05180500  0.18526300  0.67673700  1
  Ba  Ba6  1  0.42913200  0.28050700  0.82674800  1
  Ba  Ba7  1  0.72987800  0.33062600  0.19392000  1
  Ba  Ba8  1  0.74137300  0.82802600  0.72618400  1
  Ba  Ba9  1  0.71848800  0.53805100  0.51986400  1
  Y  Y10  1  0.16128300  0.51680500  0.16484900  1
  Y  Y11  1  0.74167100  0.00348500  0.01263500  1
  Y  Y12  1  0.66428700  0.16198300  0.48594200  1
  Y  Y13  1  0.33571300  0.83801700  0.51405800  1
  Y  Y14  1  0.25832900  0.99651500  0.98736500  1
  Y  Y15  1  0.83871700  0.48319500  0.83515100  1
  F  F16  1  0.28011500  0.66362500  0.15863100  1
  F  F17  1  0.27121300  0.48687700  0.96996000  1
  F  F18  1  0.08744900  0.85342000  0.66664000  1
  F  F19  1  0.04436700  0.55784700  0.35909100  1
  F  F20  1  0.01896400  0.37689000  0.21256800  1
  F  F21  1  0.36409800  0.39188600  0.22914700  1
  F  F22  1  0.61219700  0.17838900  0.09117100  1
  F  F23  1  0.20296800  0.17774500  0.05150000  1
  F  F24  1  0.35365600  0.64758700  0.56198600  1
  F  F25  1  0.50000000  0.00000000  0.00000000  1
  F  F26  1  0.00000000  0.00000000  0.00000000  1
  F  F27  1  0.13401300  0.28860600  0.46413000  1
  F  F28  1  0.54151800  0.18225300  0.34626200  1
  F  F29  1  0.68214300  0.92035500  0.19127300  1
  F  F30  1  0.19929700  0.93441600  0.17341200  1
  F  F31  1  0.43938000  0.46426100  0.69317700  1
  F  F32  1  0.38944200  0.23784300  0.60808600  1
  F  F33  1  0.74772000  0.20356900  0.62796100  1
  F  F34  1  0.92830300  0.65850200  0.16228800  1
  F  F35  1  0.26023400  0.02888300  0.48511800  1
  F  F36  1  0.73976600  0.97111700  0.51488200  1
  F  F37  1  0.07169700  0.34149800  0.83771200  1
  F  F38  1  0.25228000  0.79643100  0.37203900  1
  F  F39  1  0.61055800  0.76215700  0.39191400  1
  F  F40  1  0.56062000  0.53573900  0.30682300  1
  F  F41  1  0.80070300  0.06558400  0.82658800  1
  F  F42  1  0.31785700  0.07964500  0.80872700  1
  F  F43  1  0.45848200  0.81774700  0.65373800  1
  F  F44  1  0.86598700  0.71139400  0.53587000  1
  F  F45  1  0.64634400  0.35241300  0.43801400  1
  F  F46  1  0.79703200  0.82225500  0.94850000  1
  F  F47  1  0.38780300  0.82161100  0.90882900  1
  F  F48  1  0.63590200  0.60811400  0.77085300  1
  F  F49  1  0.98103600  0.62311000  0.78743200  1
  F  F50  1  0.95563300  0.44215300  0.64090900  1
  F  F51  1  0.91255100  0.14658000  0.33336000  1
  F  F52  1  0.72878700  0.51312300  0.03004000  1
  F  F53  1  0.71988500  0.33637500  0.84136900  1
