# generated using pymatgen
data_SbAsO4
_symmetry_space_group_name_H-M   'P 1'
_cell_length_a   7.10932900
_cell_length_b   4.94454200
_cell_length_c   5.66557491
_cell_angle_alpha   83.64958292
_cell_angle_beta   90.00000000
_cell_angle_gamma   90.00000000
_symmetry_Int_Tables_number   1
_chemical_formula_structural   SbAsO4
_chemical_formula_sum   'Sb2 As2 O8'
_cell_volume   197.93638451
_cell_formula_units_Z   2
loop_
 _symmetry_equiv_pos_site_id
 _symmetry_equiv_pos_as_xyz
  1  'x, y, z'
loop_
 _atom_site_type_symbol
 _atom_site_label
 _atom_site_symmetry_multiplicity
 _atom_site_fract_x
 _atom_site_fract_y
 _atom_site_fract_z
 _atom_site_occupancy
  Sb  Sb0  1  0.75000000  0.18454100  0.30104600  1
  Sb  Sb1  1  0.25000000  0.81545900  0.69895400  1
  As  As2  1  0.75000000  0.71611400  0.88829600  1
  As  As3  1  0.25000000  0.28388600  0.11170400  1
  O  O4  1  0.55953500  0.81710600  0.71846000  1
  O  O5  1  0.05953500  0.18289400  0.28154000  1
  O  O6  1  0.44046500  0.18289400  0.28154000  1
  O  O7  1  0.94046500  0.81710600  0.71846000  1
  O  O8  1  0.75000000  0.81529600  0.17559100  1
  O  O9  1  0.25000000  0.18470400  0.82440900  1
  O  O10  1  0.75000000  0.36309000  0.95524200  1
  O  O11  1  0.25000000  0.63691000  0.04475800  1
