# generated using pymatgen
data_K8Al2O7
_symmetry_space_group_name_H-M   'P 1'
_cell_length_a   12.24139000
_cell_length_b   9.55706600
_cell_length_c   11.25948812
_cell_angle_alpha   72.03422503
_cell_angle_beta   90.00000000
_cell_angle_gamma   90.00000000
_symmetry_Int_Tables_number   1
_chemical_formula_structural   K8Al2O7
_chemical_formula_sum   'K32 Al8 O28'
_cell_volume   1253.03873785
_cell_formula_units_Z   4
loop_
 _symmetry_equiv_pos_site_id
 _symmetry_equiv_pos_as_xyz
  1  'x, y, z'
loop_
 _atom_site_type_symbol
 _atom_site_label
 _atom_site_symmetry_multiplicity
 _atom_site_fract_x
 _atom_site_fract_y
 _atom_site_fract_z
 _atom_site_occupancy
  K  K0  1  0.52423700  0.88364400  0.92392900  1
  K  K1  1  0.53903500  0.92043500  0.64298200  1
  K  K2  1  0.25932200  0.89505900  0.53128800  1
  K  K3  1  0.97576300  0.88364400  0.42392900  1
  K  K4  1  0.05799100  0.75406700  0.71217500  1
  K  K5  1  0.96096500  0.92043500  0.14298200  1
  K  K6  1  0.75667000  0.70861700  0.56865200  1
  K  K7  1  0.24067800  0.89505900  0.03128800  1
  K  K8  1  0.53315600  0.57309300  0.85840700  1
  K  K9  1  0.49156500  0.66395000  0.51762200  1
  K  K10  1  0.44200900  0.75406700  0.21217500  1
  K  K11  1  0.77207100  0.50462200  0.87128600  1
  K  K12  1  0.74333000  0.70861700  0.06865200  1
  K  K13  1  0.27207100  0.49537800  0.62871400  1
  K  K14  1  0.96684400  0.57309300  0.35840700  1
  K  K15  1  0.99156500  0.33605000  0.98237800  1
  K  K16  1  0.00843500  0.66395000  0.01762200  1
  K  K17  1  0.03315600  0.42690700  0.64159300  1
  K  K18  1  0.72792900  0.50462200  0.37128600  1
  K  K19  1  0.25667000  0.29138300  0.93134800  1
  K  K20  1  0.22792900  0.49537800  0.12871400  1
  K  K21  1  0.55799100  0.24593300  0.78782500  1
  K  K22  1  0.50843500  0.33605000  0.48237800  1
  K  K23  1  0.46684400  0.42690700  0.14159300  1
  K  K24  1  0.75932200  0.10494100  0.96871200  1
  K  K25  1  0.24333000  0.29138300  0.43134800  1
  K  K26  1  0.03903500  0.07956500  0.85701800  1
  K  K27  1  0.94200900  0.24593300  0.28782500  1
  K  K28  1  0.02423700  0.11635600  0.57607100  1
  K  K29  1  0.74067800  0.10494100  0.46871200  1
  K  K30  1  0.46096500  0.07956500  0.35701800  1
  K  K31  1  0.47576300  0.11635600  0.07607100  1
  Al  Al32  1  0.79933400  0.91548400  0.76849600  1
  Al  Al33  1  0.70066600  0.91548400  0.26849600  1
  Al  Al34  1  0.29176800  0.70516200  0.84037500  1
  Al  Al35  1  0.20823200  0.70516200  0.34037500  1
  Al  Al36  1  0.79176800  0.29483800  0.65962500  1
  Al  Al37  1  0.70823200  0.29483800  0.15962500  1
  Al  Al38  1  0.29933400  0.08451600  0.73150400  1
  Al  Al39  1  0.20066600  0.08451600  0.23150400  1
  O  O40  1  0.88269000  0.88707500  0.90803300  1
  O  O41  1  0.23604100  0.89591900  0.78138100  1
  O  O42  1  0.87859100  0.89920500  0.63828000  1
  O  O43  1  0.61731000  0.88707500  0.40803300  1
  O  O44  1  0.68739800  0.78417800  0.80514100  1
  O  O45  1  0.26395900  0.89591900  0.28138100  1
  O  O46  1  0.62140900  0.89920500  0.13828000  1
  O  O47  1  0.37472900  0.68112900  0.71437800  1
  O  O48  1  0.81260200  0.78417800  0.30514100  1
  O  O49  1  0.17387900  0.57984300  0.88249300  1
  O  O50  1  0.12437100  0.67564400  0.47918700  1
  O  O51  1  0.12527100  0.68112900  0.21437800  1
  O  O52  1  0.32612100  0.57984300  0.38249300  1
  O  O53  1  0.62437100  0.32435600  0.02081300  1
  O  O54  1  0.37562900  0.67564400  0.97918700  1
  O  O55  1  0.67387900  0.42015700  0.61750700  1
  O  O56  1  0.87472900  0.31887100  0.78562200  1
  O  O57  1  0.87562900  0.32435600  0.52081300  1
  O  O58  1  0.82612100  0.42015700  0.11750700  1
  O  O59  1  0.18739800  0.21582200  0.69485900  1
  O  O60  1  0.62527100  0.31887100  0.28562200  1
  O  O61  1  0.37859100  0.10079500  0.86172000  1
  O  O62  1  0.73604100  0.10408100  0.71861900  1
  O  O63  1  0.31260200  0.21582200  0.19485900  1
  O  O64  1  0.38269000  0.11292500  0.59196700  1
  O  O65  1  0.12140900  0.10079500  0.36172000  1
  O  O66  1  0.76395900  0.10408100  0.21861900  1
  O  O67  1  0.11731000  0.11292500  0.09196700  1
