# generated using pymatgen
data_Gd3SbO7
_symmetry_space_group_name_H-M   'P 1'
_cell_length_a   7.55475200
_cell_length_b   7.57280500
_cell_length_c   10.72903600
_cell_angle_alpha   90.00000000
_cell_angle_beta   90.00000000
_cell_angle_gamma   90.00000000
_symmetry_Int_Tables_number   1
_chemical_formula_structural   Gd3SbO7
_chemical_formula_sum   'Gd12 Sb4 O28'
_cell_volume   613.81527063
_cell_formula_units_Z   4
loop_
 _symmetry_equiv_pos_site_id
 _symmetry_equiv_pos_as_xyz
  1  'x, y, z'
loop_
 _atom_site_type_symbol
 _atom_site_label
 _atom_site_symmetry_multiplicity
 _atom_site_fract_x
 _atom_site_fract_y
 _atom_site_fract_z
 _atom_site_occupancy
  Gd  Gd0  1  0.77291600  0.00458500  0.25000000  1
  Gd  Gd1  1  0.96589400  0.25342000  0.52011500  1
  Gd  Gd2  1  0.96589400  0.25342000  0.97988500  1
  Gd  Gd3  1  0.46589400  0.24658000  0.02011500  1
  Gd  Gd4  1  0.46589400  0.24658000  0.47988500  1
  Gd  Gd5  1  0.27291600  0.49541500  0.75000000  1
  Gd  Gd6  1  0.72708400  0.50458500  0.25000000  1
  Gd  Gd7  1  0.53410600  0.75342000  0.52011500  1
  Gd  Gd8  1  0.53410600  0.75342000  0.97988500  1
  Gd  Gd9  1  0.03410600  0.74658000  0.02011500  1
  Gd  Gd10  1  0.03410600  0.74658000  0.47988500  1
  Gd  Gd11  1  0.22708400  0.99541500  0.75000000  1
  Sb  Sb12  1  0.75200900  0.00158000  0.75000000  1
  Sb  Sb13  1  0.25200900  0.49842000  0.25000000  1
  Sb  Sb14  1  0.74799100  0.50158000  0.75000000  1
  Sb  Sb15  1  0.24799100  0.99842000  0.25000000  1
  O  O16  1  0.05292000  0.03256000  0.12414300  1
  O  O17  1  0.05292000  0.03256000  0.37585700  1
  O  O18  1  0.57072000  0.03613300  0.61818800  1
  O  O19  1  0.57072000  0.03613300  0.88181200  1
  O  O20  1  0.33741300  0.24775300  0.25000000  1
  O  O21  1  0.73199400  0.25142000  0.11684900  1
  O  O22  1  0.73199400  0.25142000  0.38315100  1
  O  O23  1  0.23199400  0.24858000  0.61684900  1
  O  O24  1  0.23199400  0.24858000  0.88315100  1
  O  O25  1  0.83741300  0.25224700  0.75000000  1
  O  O26  1  0.07072000  0.46386700  0.11818800  1
  O  O27  1  0.07072000  0.46386700  0.38181200  1
  O  O28  1  0.55292000  0.46744000  0.62414300  1
  O  O29  1  0.55292000  0.46744000  0.87585700  1
  O  O30  1  0.44708000  0.53256000  0.12414300  1
  O  O31  1  0.44708000  0.53256000  0.37585700  1
  O  O32  1  0.92928000  0.53613300  0.61818800  1
  O  O33  1  0.92928000  0.53613300  0.88181200  1
  O  O34  1  0.16258700  0.74775300  0.25000000  1
  O  O35  1  0.76800600  0.75142000  0.11684900  1
  O  O36  1  0.76800600  0.75142000  0.38315100  1
  O  O37  1  0.26800600  0.74858000  0.61684900  1
  O  O38  1  0.26800600  0.74858000  0.88315100  1
  O  O39  1  0.66258700  0.75224700  0.75000000  1
  O  O40  1  0.42928000  0.96386700  0.11818800  1
  O  O41  1  0.42928000  0.96386700  0.38181200  1
  O  O42  1  0.94708000  0.96744000  0.62414300  1
  O  O43  1  0.94708000  0.96744000  0.87585700  1
