# generated using pymatgen
data_Na3CuO2
_symmetry_space_group_name_H-M   'P 1'
_cell_length_a   10.96477400
_cell_length_b   10.98943500
_cell_length_c   11.88857600
_cell_angle_alpha   90.00000000
_cell_angle_beta   90.00000000
_cell_angle_gamma   90.00000000
_symmetry_Int_Tables_number   1
_chemical_formula_structural   Na3CuO2
_chemical_formula_sum   'Na48 Cu16 O32'
_cell_volume   1432.53383286
_cell_formula_units_Z   16
loop_
 _symmetry_equiv_pos_site_id
 _symmetry_equiv_pos_as_xyz
  1  'x, y, z'
loop_
 _atom_site_type_symbol
 _atom_site_label
 _atom_site_symmetry_multiplicity
 _atom_site_fract_x
 _atom_site_fract_y
 _atom_site_fract_z
 _atom_site_occupancy
  Na  Na0  1  0.01035400  0.29271300  0.00431000  1
  Na  Na1  1  0.00133600  0.78834000  0.77099900  1
  Na  Na2  1  0.01432700  0.49834100  0.43279800  1
  Na  Na3  1  0.02560600  0.22531100  0.49817300  1
  Na  Na4  1  0.04784100  0.25269600  0.24352600  1
  Na  Na5  1  0.07036300  0.07881100  0.86960100  1
  Na  Na6  1  0.19446200  0.80520400  0.13425000  1
  Na  Na7  1  0.20482200  0.70026300  0.34805000  1
  Na  Na8  1  0.20944700  0.98801100  0.49099000  1
  Na  Na9  1  0.22065300  0.51950000  0.00592800  1
  Na  Na10  1  0.23233400  0.53622800  0.74268300  1
  Na  Na11  1  0.23956800  0.03828700  0.23685200  1
  Na  Na12  1  0.26043200  0.96171300  0.73685200  1
  Na  Na13  1  0.26766600  0.46377200  0.24268300  1
  Na  Na14  1  0.27934700  0.48050000  0.50592800  1
  Na  Na15  1  0.29055300  0.01198900  0.99099000  1
  Na  Na16  1  0.29517800  0.29973700  0.84805000  1
  Na  Na17  1  0.30553800  0.19479600  0.63425000  1
  Na  Na18  1  0.42963700  0.92118900  0.36960100  1
  Na  Na19  1  0.45215900  0.74730400  0.74352600  1
  Na  Na20  1  0.47439400  0.77468900  0.99817300  1
  Na  Na21  1  0.48567300  0.50165900  0.93279800  1
  Na  Na22  1  0.49866400  0.21166000  0.27099900  1
  Na  Na23  1  0.48964600  0.70728700  0.50431000  1
  Na  Na24  1  0.51035400  0.20728700  0.99569000  1
  Na  Na25  1  0.50133600  0.71166000  0.22900100  1
  Na  Na26  1  0.51432700  0.00165900  0.56720200  1
  Na  Na27  1  0.52560600  0.27468900  0.50182700  1
  Na  Na28  1  0.54784100  0.24730400  0.75647400  1
  Na  Na29  1  0.57036300  0.42118900  0.13039900  1
  Na  Na30  1  0.69446200  0.69479600  0.86575000  1
  Na  Na31  1  0.70482200  0.79973700  0.65195000  1
  Na  Na32  1  0.70944700  0.51198900  0.50901000  1
  Na  Na33  1  0.72065300  0.98050000  0.99407200  1
  Na  Na34  1  0.73233400  0.96377200  0.25731700  1
  Na  Na35  1  0.73956800  0.46171300  0.76314800  1
  Na  Na36  1  0.76043200  0.53828700  0.26314800  1
  Na  Na37  1  0.76766600  0.03622800  0.75731700  1
  Na  Na38  1  0.77934700  0.01950000  0.49407200  1
  Na  Na39  1  0.79055300  0.48801100  0.00901000  1
  Na  Na40  1  0.79517800  0.20026300  0.15195000  1
  Na  Na41  1  0.80553800  0.30520400  0.36575000  1
  Na  Na42  1  0.92963700  0.57881100  0.63039900  1
  Na  Na43  1  0.95215900  0.75269600  0.25647400  1
  Na  Na44  1  0.97439400  0.72531100  0.00182700  1
  Na  Na45  1  0.98567300  0.99834100  0.06720200  1
  Na  Na46  1  0.99866400  0.28834000  0.72900100  1
  Na  Na47  1  0.98964600  0.79271300  0.49569000  1
  Cu  Cu48  1  0.00282200  0.50510100  0.16756000  1
  Cu  Cu49  1  0.00067500  0.00937800  0.64570500  1
  Cu  Cu50  1  0.23003200  0.76292800  0.90102200  1
  Cu  Cu51  1  0.23645300  0.74467400  0.58553400  1
  Cu  Cu52  1  0.26354700  0.25532600  0.08553400  1
  Cu  Cu53  1  0.26996800  0.23707200  0.40102200  1
  Cu  Cu54  1  0.49932500  0.99062200  0.14570500  1
  Cu  Cu55  1  0.49717800  0.49489900  0.66756000  1
  Cu  Cu56  1  0.50282200  0.99489900  0.83244000  1
  Cu  Cu57  1  0.50067500  0.49062200  0.35429500  1
  Cu  Cu58  1  0.73003200  0.73707200  0.09897800  1
  Cu  Cu59  1  0.73645300  0.75532600  0.41446600  1
  Cu  Cu60  1  0.76354700  0.24467400  0.91446600  1
  Cu  Cu61  1  0.76996800  0.26292800  0.59897800  1
  Cu  Cu62  1  0.99932500  0.50937800  0.85429500  1
  Cu  Cu63  1  0.99717800  0.00510100  0.33244000  1
  O  O64  1  0.11363400  0.88710400  0.33132600  1
  O  O65  1  0.11972200  0.12053100  0.66476300  1
  O  O66  1  0.11755500  0.88048200  0.93162600  1
  O  O67  1  0.11867500  0.62196200  0.17222300  1
  O  O68  1  0.12230500  0.62658100  0.56878600  1
  O  O69  1  0.11682100  0.39524000  0.86125200  1
  O  O70  1  0.14370100  0.14031200  0.08556600  1
  O  O71  1  0.15440100  0.35293400  0.38670700  1
  O  O72  1  0.34559900  0.64706600  0.88670700  1
  O  O73  1  0.35629900  0.85968800  0.58556600  1
  O  O74  1  0.38317900  0.60476000  0.36125200  1
  O  O75  1  0.37769500  0.37341900  0.06878600  1
  O  O76  1  0.38132500  0.37803800  0.67222300  1
  O  O77  1  0.38244500  0.11951800  0.43162600  1
  O  O78  1  0.38027800  0.87946900  0.16476300  1
  O  O79  1  0.38636600  0.11289600  0.83132600  1
  O  O80  1  0.61363400  0.61289600  0.66867400  1
  O  O81  1  0.61972200  0.37946900  0.33523700  1
  O  O82  1  0.61755500  0.61951800  0.06837400  1
  O  O83  1  0.61867500  0.87803800  0.82777700  1
  O  O84  1  0.62230500  0.87341900  0.43121400  1
  O  O85  1  0.61682100  0.10476000  0.13874800  1
  O  O86  1  0.64370100  0.35968800  0.91443400  1
  O  O87  1  0.65440100  0.14706600  0.61329300  1
  O  O88  1  0.84559900  0.85293400  0.11329300  1
  O  O89  1  0.85629900  0.64031200  0.41443400  1
  O  O90  1  0.88317900  0.89524000  0.63874800  1
  O  O91  1  0.87769500  0.12658100  0.93121400  1
  O  O92  1  0.88132500  0.12196200  0.32777700  1
  O  O93  1  0.88244500  0.38048200  0.56837400  1
  O  O94  1  0.88027800  0.62053100  0.83523700  1
  O  O95  1  0.88636600  0.38710400  0.16867400  1
