# generated using pymatgen
data_Ga3NO3
_symmetry_space_group_name_H-M   'P 1'
_cell_length_a   6.14190700
_cell_length_b   8.38395857
_cell_length_c   8.39764564
_cell_angle_alpha   119.33922409
_cell_angle_beta   90.30137299
_cell_angle_gamma   90.29158655
_symmetry_Int_Tables_number   1
_chemical_formula_structural   Ga3NO3
_chemical_formula_sum   'Ga12 N4 O12'
_cell_volume   376.93902805
_cell_formula_units_Z   4
loop_
 _symmetry_equiv_pos_site_id
 _symmetry_equiv_pos_as_xyz
  1  'x, y, z'
loop_
 _atom_site_type_symbol
 _atom_site_label
 _atom_site_symmetry_multiplicity
 _atom_site_fract_x
 _atom_site_fract_y
 _atom_site_fract_z
 _atom_site_occupancy
  Ga  Ga0  1  0.54915800  0.83475700  0.74487100  1
  Ga  Ga1  1  0.85516600  0.93081900  0.49723500  1
  Ga  Ga2  1  0.53495000  0.91745700  0.17367200  1
  Ga  Ga3  1  0.84375500  0.50461500  0.41847100  1
  Ga  Ga4  1  0.84125000  0.56825100  0.07845500  1
  Ga  Ga5  1  0.04921100  0.75054300  0.82718500  1
  Ga  Ga6  1  0.34682400  0.48752200  0.91814400  1
  Ga  Ga7  1  0.54891900  0.25874500  0.08810200  1
  Ga  Ga8  1  0.03056500  0.17208800  0.91240800  1
  Ga  Ga9  1  0.32870200  0.41752100  0.50685500  1
  Ga  Ga10  1  0.33050600  0.07220000  0.56531500  1
  Ga  Ga11  1  0.05375900  0.09087000  0.25791800  1
  N  N12  1  0.79477500  0.32523100  0.00923100  1
  N  N13  1  0.06277700  0.34638200  0.38937300  1
  N  N14  1  0.08195500  0.02702000  0.66413800  1
  N  N15  1  0.29758000  0.99848400  0.31853800  1
  O  O16  1  0.57564500  0.95564000  0.61060500  1
  O  O17  1  0.79943000  0.68467400  0.67804700  1
  O  O18  1  0.80154800  0.98463500  0.30398200  1
  O  O19  1  0.54184700  0.99982900  0.99649900  1
  O  O20  1  0.03916700  0.99582500  0.99894200  1
  O  O21  1  0.87251100  0.67608600  0.33465800  1
  O  O22  1  0.56059600  0.39469500  0.35016600  1
  O  O23  1  0.57516100  0.65841300  0.03058800  1
  O  O24  1  0.07450100  0.61195700  0.95174100  1
  O  O25  1  0.31082900  0.67617900  0.69288300  1
  O  O26  1  0.29479700  0.32620700  0.00928500  1
  O  O27  1  0.40746600  0.33335400  0.67268900  1
