# generated using pymatgen
data_NaV(PO4)2
_symmetry_space_group_name_H-M   'P 1'
_cell_length_a   8.22011500
_cell_length_b   8.22011500
_cell_length_c   10.15724800
_cell_angle_alpha   90.00000000
_cell_angle_beta   90.00000000
_cell_angle_gamma   90.00000000
_symmetry_Int_Tables_number   1
_chemical_formula_structural   NaV(PO4)2
_chemical_formula_sum   'Na4 V4 P8 O32'
_cell_volume   686.32819919
_cell_formula_units_Z   4
loop_
 _symmetry_equiv_pos_site_id
 _symmetry_equiv_pos_as_xyz
  1  'x, y, z'
loop_
 _atom_site_type_symbol
 _atom_site_label
 _atom_site_symmetry_multiplicity
 _atom_site_fract_x
 _atom_site_fract_y
 _atom_site_fract_z
 _atom_site_occupancy
  Na  Na0  1  0.16770300  0.16770300  0.74909300  1
  Na  Na1  1  0.33229700  0.66770300  0.24909300  1
  Na  Na2  1  0.66770300  0.33229700  0.24909300  1
  Na  Na3  1  0.83229700  0.83229700  0.74909300  1
  V  V4  1  0.00000000  0.50000000  0.46988200  1
  V  V5  1  0.00000000  0.50000000  0.96988200  1
  V  V6  1  0.50000000  0.00000000  0.46988200  1
  V  V7  1  0.50000000  0.00000000  0.96988200  1
  P  P8  1  0.12515200  0.87484800  0.49075300  1
  P  P9  1  0.13421200  0.86578800  0.99542500  1
  P  P10  1  0.36578800  0.36578800  0.49542500  1
  P  P11  1  0.37484800  0.37484800  0.99075300  1
  P  P12  1  0.63421200  0.63421200  0.49542500  1
  P  P13  1  0.62515200  0.62515200  0.99075300  1
  P  P14  1  0.87484800  0.12515200  0.49075300  1
  P  P15  1  0.86578800  0.13421200  0.99542500  1
  O  O16  1  0.00000000  0.50000000  0.12729700  1
  O  O17  1  0.00000000  0.50000000  0.62729700  1
  O  O18  1  0.00000000  0.00000000  0.42195600  1
  O  O19  1  0.00000000  0.00000000  0.94724100  1
  O  O20  1  0.08016400  0.70924100  0.42598200  1
  O  O21  1  0.07468800  0.71138200  0.91988300  1
  O  O22  1  0.15140600  0.84859400  0.13978300  1
  O  O23  1  0.11778800  0.88221200  0.63700800  1
  O  O24  1  0.21138200  0.42531200  0.41988300  1
  O  O25  1  0.20924100  0.41983600  0.92598200  1
  O  O26  1  0.29075900  0.91983600  0.42598200  1
  O  O27  1  0.28861800  0.92531200  0.91988300  1
  O  O28  1  0.38221200  0.38221200  0.13700800  1
  O  O29  1  0.34859400  0.34859400  0.63978300  1
  O  O30  1  0.42531200  0.21138200  0.41988300  1
  O  O31  1  0.41983600  0.20924100  0.92598200  1
  O  O32  1  0.50000000  0.00000000  0.62729700  1
  O  O33  1  0.50000000  0.50000000  0.44724100  1
  O  O34  1  0.50000000  0.00000000  0.12729700  1
  O  O35  1  0.50000000  0.50000000  0.92195600  1
  O  O36  1  0.57468800  0.78861800  0.41988300  1
  O  O37  1  0.58016400  0.79075900  0.92598200  1
  O  O38  1  0.61778800  0.61778800  0.13700800  1
  O  O39  1  0.65140600  0.65140600  0.63978300  1
  O  O40  1  0.70924100  0.08016400  0.42598200  1
  O  O41  1  0.71138200  0.07468800  0.91988300  1
  O  O42  1  0.78861800  0.57468800  0.41988300  1
  O  O43  1  0.79075900  0.58016400  0.92598200  1
  O  O44  1  0.84859400  0.15140600  0.13978300  1
  O  O45  1  0.88221200  0.11778800  0.63700800  1
  O  O46  1  0.91983600  0.29075900  0.42598200  1
  O  O47  1  0.92531200  0.28861800  0.91988300  1
