# generated using pymatgen
data_HoP5O14
_symmetry_space_group_name_H-M   'P 1'
_cell_length_a   8.80743500
_cell_length_b   9.14260400
_cell_length_c   12.80690200
_cell_angle_alpha   90.00000000
_cell_angle_beta   90.00000000
_cell_angle_gamma   90.00000000
_symmetry_Int_Tables_number   1
_chemical_formula_structural   HoP5O14
_chemical_formula_sum   'Ho4 P20 O56'
_cell_volume   1031.24876689
_cell_formula_units_Z   4
loop_
 _symmetry_equiv_pos_site_id
 _symmetry_equiv_pos_as_xyz
  1  'x, y, z'
loop_
 _atom_site_type_symbol
 _atom_site_label
 _atom_site_symmetry_multiplicity
 _atom_site_fract_x
 _atom_site_fract_y
 _atom_site_fract_z
 _atom_site_occupancy
  Ho  Ho0  1  0.02070400  0.05641300  0.75000000  1
  Ho  Ho1  1  0.52070400  0.44358700  0.75000000  1
  Ho  Ho2  1  0.47929600  0.55641300  0.25000000  1
  Ho  Ho3  1  0.97929600  0.94358700  0.25000000  1
  P  P4  1  0.75700600  0.22746200  0.56990200  1
  P  P5  1  0.25700600  0.27253800  0.93009800  1
  P  P6  1  0.74299400  0.72746200  0.43009800  1
  P  P7  1  0.24299400  0.77253800  0.06990200  1
  P  P8  1  0.24299400  0.77253800  0.43009800  1
  P  P9  1  0.74299400  0.72746200  0.06990200  1
  P  P10  1  0.25700600  0.27253800  0.56990200  1
  P  P11  1  0.75700600  0.22746200  0.93009800  1
  P  P12  1  0.50892400  0.20458100  0.41816300  1
  P  P13  1  0.00892400  0.29541900  0.08183700  1
  P  P14  1  0.99107600  0.70458100  0.58183700  1
  P  P15  1  0.49107600  0.79541900  0.91816300  1
  P  P16  1  0.49107600  0.79541900  0.58183700  1
  P  P17  1  0.99107600  0.70458100  0.91816300  1
  P  P18  1  0.00892400  0.29541900  0.41816300  1
  P  P19  1  0.50892400  0.20458100  0.08183700  1
  P  P20  1  0.42690200  0.00409800  0.75000000  1
  P  P21  1  0.92690200  0.49590200  0.75000000  1
  P  P22  1  0.07309800  0.50409800  0.25000000  1
  P  P23  1  0.57309800  0.99590200  0.25000000  1
  O  O24  1  0.82893800  0.10596700  0.62905600  1
  O  O25  1  0.32893800  0.39403300  0.87094400  1
  O  O26  1  0.67106200  0.60596700  0.37094400  1
  O  O27  1  0.17106200  0.89403300  0.12905600  1
  O  O28  1  0.17106200  0.89403300  0.37094400  1
  O  O29  1  0.67106200  0.60596700  0.12905600  1
  O  O30  1  0.32893800  0.39403300  0.62905600  1
  O  O31  1  0.82893800  0.10596700  0.87094400  1
  O  O32  1  0.65804100  0.33912200  0.62028700  1
  O  O33  1  0.15804100  0.16087800  0.87971300  1
  O  O34  1  0.84195900  0.83912200  0.37971300  1
  O  O35  1  0.34195900  0.66087800  0.12028700  1
  O  O36  1  0.34195900  0.66087800  0.37971300  1
  O  O37  1  0.84195900  0.83912200  0.12028700  1
  O  O38  1  0.15804100  0.16087800  0.62028700  1
  O  O39  1  0.65804100  0.33912200  0.87971300  1
  O  O40  1  0.88488000  0.31889300  0.50526200  1
  O  O41  1  0.38488000  0.18110700  0.99473800  1
  O  O42  1  0.61512000  0.81889300  0.49473800  1
  O  O43  1  0.66287400  0.15656200  0.47282000  1
  O  O44  1  0.11512000  0.68110700  0.00526200  1
  O  O45  1  0.61512000  0.81889300  0.00526200  1
  O  O46  1  0.38488000  0.18110700  0.50526200  1
  O  O47  1  0.88488000  0.31889300  0.99473800  1
  O  O48  1  0.53774900  0.83757800  0.25000000  1
  O  O49  1  0.03774900  0.66242200  0.25000000  1
  O  O50  1  0.96225100  0.33757800  0.75000000  1
  O  O51  1  0.46225100  0.16242200  0.75000000  1
  O  O52  1  0.73020200  0.05809000  0.25000000  1
  O  O53  1  0.23020200  0.44191000  0.25000000  1
  O  O54  1  0.76979800  0.55809000  0.75000000  1
  O  O55  1  0.26979800  0.94191000  0.75000000  1
  O  O56  1  0.47587200  0.06825200  0.15333200  1
  O  O57  1  0.97587200  0.43174800  0.34666800  1
  O  O58  1  0.02412800  0.56825200  0.84666800  1
  O  O59  1  0.52412800  0.93174800  0.65333200  1
  O  O60  1  0.52412800  0.93174800  0.84666800  1
  O  O61  1  0.02412800  0.56825200  0.65333200  1
  O  O62  1  0.97587200  0.43174800  0.15333200  1
  O  O63  1  0.47587200  0.06825200  0.34666800  1
  O  O64  1  0.50903300  0.34789500  0.13488400  1
  O  O65  1  0.00903300  0.15210500  0.36511600  1
  O  O66  1  0.99096700  0.84789500  0.86511600  1
  O  O67  1  0.49096700  0.65210500  0.63488400  1
  O  O68  1  0.49096700  0.65210500  0.86511600  1
  O  O69  1  0.99096700  0.84789500  0.63488400  1
  O  O70  1  0.00903300  0.15210500  0.13488400  1
  O  O71  1  0.50903300  0.34789500  0.36511600  1
  O  O72  1  0.66287400  0.15656200  0.02718000  1
  O  O73  1  0.16287400  0.34343800  0.47282000  1
  O  O74  1  0.83712600  0.65656200  0.97282000  1
  O  O75  1  0.33712600  0.84343800  0.52718000  1
  O  O76  1  0.33712600  0.84343800  0.97282000  1
  O  O77  1  0.83712600  0.65656200  0.52718000  1
  O  O78  1  0.16287400  0.34343800  0.02718000  1
  O  O79  1  0.11512000  0.68110700  0.49473800  1
