# generated using pymatgen
data_Rb4PbO4
_symmetry_space_group_name_H-M   'P 1'
_cell_length_a   19.66310900
_cell_length_b   6.99880000
_cell_length_c   7.01515587
_cell_angle_alpha   67.13845763
_cell_angle_beta   90.00000000
_cell_angle_gamma   90.00000000
_symmetry_Int_Tables_number   1
_chemical_formula_structural   Rb4PbO4
_chemical_formula_sum   'Rb16 Pb4 O16'
_cell_volume   889.57621886
_cell_formula_units_Z   4
loop_
 _symmetry_equiv_pos_site_id
 _symmetry_equiv_pos_as_xyz
  1  'x, y, z'
loop_
 _atom_site_type_symbol
 _atom_site_label
 _atom_site_symmetry_multiplicity
 _atom_site_fract_x
 _atom_site_fract_y
 _atom_site_fract_z
 _atom_site_occupancy
  Rb  Rb0  1  0.80999300  0.31884500  0.19320500  1
  Rb  Rb1  1  0.01558500  0.24508300  0.21944700  1
  Rb  Rb2  1  0.21566000  0.17824200  0.30173900  1
  Rb  Rb3  1  0.41840000  0.21247200  0.35915700  1
  Rb  Rb4  1  0.69000700  0.81884500  0.19320500  1
  Rb  Rb5  1  0.48441500  0.74508300  0.21944700  1
  Rb  Rb6  1  0.28434000  0.67824200  0.30173900  1
  Rb  Rb7  1  0.08160000  0.71247200  0.35915700  1
  Rb  Rb8  1  0.91840000  0.28752800  0.64084300  1
  Rb  Rb9  1  0.71566000  0.32175800  0.69826100  1
  Rb  Rb10  1  0.51558500  0.25491700  0.78055300  1
  Rb  Rb11  1  0.30999300  0.18115500  0.80679500  1
  Rb  Rb12  1  0.58160000  0.78752800  0.64084300  1
  Rb  Rb13  1  0.78434000  0.82175800  0.69826100  1
  Rb  Rb14  1  0.98441500  0.75491700  0.78055300  1
  Rb  Rb15  1  0.19000700  0.68115500  0.80679500  1
  Pb  Pb16  1  0.62314700  0.30955200  0.24745300  1
  Pb  Pb17  1  0.87685300  0.80955200  0.24745300  1
  Pb  Pb18  1  0.12314700  0.19044800  0.75254700  1
  Pb  Pb19  1  0.37685300  0.69044800  0.75254700  1
  O  O20  1  0.33073100  0.48624700  0.03039800  1
  O  O21  1  0.54663900  0.11597900  0.20718500  1
  O  O22  1  0.90623500  0.98972200  0.41753100  1
  O  O23  1  0.16926900  0.98624700  0.03039800  1
  O  O24  1  0.95336100  0.61597900  0.20718500  1
  O  O25  1  0.69460500  0.09193300  0.43926200  1
  O  O26  1  0.59376500  0.48972200  0.41753100  1
  O  O27  1  0.80539500  0.59193300  0.43926200  1
  O  O28  1  0.19460500  0.40806700  0.56073800  1
  O  O29  1  0.40623500  0.51027800  0.58246900  1
  O  O30  1  0.30539500  0.90806700  0.56073800  1
  O  O31  1  0.04663900  0.38402100  0.79281500  1
  O  O32  1  0.83073100  0.01375300  0.96960200  1
  O  O33  1  0.09376500  0.01027800  0.58246900  1
  O  O34  1  0.45336100  0.88402100  0.79281500  1
  O  O35  1  0.66926900  0.51375300  0.96960200  1
