# generated using pymatgen
data_Na3Sb5O14
_symmetry_space_group_name_H-M   'P 1'
_cell_length_a   7.21709800
_cell_length_b   7.41116700
_cell_length_c   24.41592800
_cell_angle_alpha   90.00000000
_cell_angle_beta   90.00000000
_cell_angle_gamma   90.00000000
_symmetry_Int_Tables_number   1
_chemical_formula_structural   Na3Sb5O14
_chemical_formula_sum   'Na12 Sb20 O56'
_cell_volume   1305.93763504
_cell_formula_units_Z   4
loop_
 _symmetry_equiv_pos_site_id
 _symmetry_equiv_pos_as_xyz
  1  'x, y, z'
loop_
 _atom_site_type_symbol
 _atom_site_label
 _atom_site_symmetry_multiplicity
 _atom_site_fract_x
 _atom_site_fract_y
 _atom_site_fract_z
 _atom_site_occupancy
  Na  Na0  1  0.19474300  0.50000000  0.02933600  1
  Na  Na1  1  0.57467200  0.50000000  0.12638200  1
  Na  Na2  1  0.69231700  0.00000000  0.19322200  1
  Na  Na3  1  0.19231700  0.00000000  0.30677800  1
  Na  Na4  1  0.07467200  0.50000000  0.37361800  1
  Na  Na5  1  0.69474300  0.50000000  0.47066400  1
  Na  Na6  1  0.30525700  0.50000000  0.52933600  1
  Na  Na7  1  0.92532800  0.50000000  0.62638200  1
  Na  Na8  1  0.80768300  0.00000000  0.69322200  1
  Na  Na9  1  0.30768300  0.00000000  0.80677800  1
  Na  Na10  1  0.42532800  0.50000000  0.87361800  1
  Na  Na11  1  0.80525700  0.50000000  0.97066400  1
  Sb  Sb12  1  0.42195300  0.00000000  0.05824000  1
  Sb  Sb13  1  0.90861100  0.00000000  0.06146200  1
  Sb  Sb14  1  0.10688300  0.73598300  0.14602700  1
  Sb  Sb15  1  0.10688300  0.26401700  0.14602700  1
  Sb  Sb16  1  0.80863900  0.50000000  0.24157600  1
  Sb  Sb17  1  0.30863900  0.50000000  0.25842400  1
  Sb  Sb18  1  0.60688300  0.73598300  0.35397300  1
  Sb  Sb19  1  0.60688300  0.26401700  0.35397300  1
  Sb  Sb20  1  0.40861100  0.00000000  0.43853800  1
  Sb  Sb21  1  0.92195300  0.00000000  0.44176000  1
  Sb  Sb22  1  0.07804700  0.00000000  0.55824000  1
  Sb  Sb23  1  0.59138900  0.00000000  0.56146200  1
  Sb  Sb24  1  0.39311700  0.73598300  0.64602700  1
  Sb  Sb25  1  0.39311700  0.26401700  0.64602700  1
  Sb  Sb26  1  0.69136100  0.50000000  0.74157600  1
  Sb  Sb27  1  0.19136100  0.50000000  0.75842400  1
  Sb  Sb28  1  0.89311700  0.73598300  0.85397300  1
  Sb  Sb29  1  0.89311700  0.26401700  0.85397300  1
  Sb  Sb30  1  0.09138900  0.00000000  0.93853800  1
  Sb  Sb31  1  0.57804700  0.00000000  0.94176000  1
  O  O32  1  0.50000000  0.82048800  0.00000000  1
  O  O33  1  0.50000000  0.17951200  0.00000000  1
  O  O34  1  0.16301100  0.00000000  0.01809200  1
  O  O35  1  0.96154000  0.74138200  0.07205900  1
  O  O36  1  0.96154000  0.25861800  0.07205900  1
  O  O37  1  0.66620800  0.00000000  0.09604700  1
  O  O38  1  0.34353900  0.80283100  0.10635500  1
  O  O39  1  0.34353900  0.19716900  0.10635500  1
  O  O40  1  0.19245100  0.50000000  0.12137700  1
  O  O41  1  0.01976900  0.00000000  0.14341000  1
  O  O42  1  0.86306300  0.68325200  0.18145100  1
  O  O43  1  0.86306300  0.31674800  0.18145100  1
  O  O44  1  0.24150200  0.27037400  0.21545600  1
  O  O45  1  0.24150200  0.72962600  0.21545600  1
  O  O46  1  0.54498000  0.50000000  0.21676700  1
  O  O47  1  0.04498000  0.50000000  0.28323300  1
  O  O48  1  0.74150200  0.72962600  0.28454400  1
  O  O49  1  0.74150200  0.27037400  0.28454400  1
  O  O50  1  0.36306300  0.68325200  0.31854900  1
  O  O51  1  0.36306300  0.31674800  0.31854900  1
  O  O52  1  0.51976900  0.00000000  0.35659000  1
  O  O53  1  0.69245100  0.50000000  0.37862300  1
  O  O54  1  0.84353900  0.80283100  0.39364500  1
  O  O55  1  0.84353900  0.19716900  0.39364500  1
  O  O56  1  0.16620800  0.00000000  0.40395300  1
  O  O57  1  0.46154000  0.74138200  0.42794100  1
  O  O58  1  0.46154000  0.25861800  0.42794100  1
  O  O59  1  0.66301100  0.00000000  0.48190800  1
  O  O60  1  0.00000000  0.82048800  0.50000000  1
  O  O61  1  0.00000000  0.17951200  0.50000000  1
  O  O62  1  0.33698900  0.00000000  0.51809200  1
  O  O63  1  0.53846000  0.74138200  0.57205900  1
  O  O64  1  0.53846000  0.25861800  0.57205900  1
  O  O65  1  0.83379200  0.00000000  0.59604700  1
  O  O66  1  0.15646100  0.80283100  0.60635500  1
  O  O67  1  0.15646100  0.19716900  0.60635500  1
  O  O68  1  0.30754900  0.50000000  0.62137700  1
  O  O69  1  0.48023100  0.00000000  0.64341000  1
  O  O70  1  0.63693700  0.68325200  0.68145100  1
  O  O71  1  0.63693700  0.31674800  0.68145100  1
  O  O72  1  0.25849800  0.27037400  0.71545600  1
  O  O73  1  0.25849800  0.72962600  0.71545600  1
  O  O74  1  0.95502000  0.50000000  0.71676700  1
  O  O75  1  0.45502000  0.50000000  0.78323300  1
  O  O76  1  0.75849800  0.72962600  0.78454400  1
  O  O77  1  0.75849800  0.27037400  0.78454400  1
  O  O78  1  0.13693700  0.68325200  0.81854900  1
  O  O79  1  0.13693700  0.31674800  0.81854900  1
  O  O80  1  0.98023100  0.00000000  0.85659000  1
  O  O81  1  0.80754900  0.50000000  0.87862300  1
  O  O82  1  0.65646100  0.80283100  0.89364500  1
  O  O83  1  0.65646100  0.19716900  0.89364500  1
  O  O84  1  0.33379200  0.00000000  0.90395300  1
  O  O85  1  0.03846000  0.74138200  0.92794100  1
  O  O86  1  0.03846000  0.25861800  0.92794100  1
  O  O87  1  0.83698900  0.00000000  0.98190800  1
