# generated using pymatgen
data_V4(OF3)3
_symmetry_space_group_name_H-M   'P 1'
_cell_length_a   5.24173400
_cell_length_b   5.38621593
_cell_length_c   17.53427129
_cell_angle_alpha   89.89353510
_cell_angle_beta   97.83177019
_cell_angle_gamma   118.60648567
_symmetry_Int_Tables_number   1
_chemical_formula_structural   V4(OF3)3
_chemical_formula_sum   'V8 O6 F18'
_cell_volume   429.41722644
_cell_formula_units_Z   2
loop_
 _symmetry_equiv_pos_site_id
 _symmetry_equiv_pos_as_xyz
  1  'x, y, z'
loop_
 _atom_site_type_symbol
 _atom_site_label
 _atom_site_symmetry_multiplicity
 _atom_site_fract_x
 _atom_site_fract_y
 _atom_site_fract_z
 _atom_site_occupancy
  V  V0  1  0.74315700  0.37170500  0.12530200  1
  V  V1  1  0.75416600  0.89004000  0.63025600  1
  V  V2  1  0.50788000  0.72658700  0.24926500  1
  V  V3  1  0.51734000  0.25012800  0.75051400  1
  V  V4  1  0.24757600  0.10050800  0.38190500  1
  V  V5  1  0.21622000  0.61002900  0.87260800  1
  V  V6  1  0.97585600  0.01328800  0.00145500  1
  V  V7  1  0.02224600  0.49442000  0.49595500  1
  O  O8  1  0.84134100  0.19773500  0.04162300  1
  O  O9  1  0.16599100  0.31221800  0.45686200  1
  O  O10  1  0.85984800  0.42414200  0.83285800  1
  O  O11  1  0.64865700  0.55012700  0.20809300  1
  O  O12  1  0.67279400  0.04066600  0.70195500  1
  O  O13  1  0.20669300  0.83112800  0.43813600  1
  F  F14  1  0.32417700  0.15218000  0.08390200  1
  F  F15  1  0.77432700  0.67635900  0.05937400  1
  F  F16  1  0.78904200  0.18636200  0.55974700  1
  F  F17  1  0.70862700  0.06760900  0.19102200  1
  F  F18  1  0.33141900  0.95216800  0.29165600  1
  F  F19  1  0.33300600  0.66421300  0.58509600  1
  F  F20  1  0.35077900  0.47321900  0.78968000  1
  F  F21  1  0.16164800  0.59310400  0.16684700  1
  F  F22  1  0.17524500  0.08925300  0.66362000  1
  F  F23  1  0.28122300  0.42298400  0.31419600  1
  F  F24  1  0.72804000  0.56797200  0.68687000  1
  F  F25  1  0.82552800  0.91528100  0.33720600  1
  F  F26  1  0.83487500  0.70361700  0.54378900  1
  F  F27  1  0.16367200  0.79230700  0.96081100  1
  F  F28  1  0.67206200  0.34374900  0.41419600  1
  F  F29  1  0.29008200  0.94772700  0.81505900  1
  F  F30  1  0.21856500  0.31008800  0.93673200  1
  F  F31  1  0.65791300  0.82908400  0.91341600  1
