# generated using pymatgen
data_B2TeO6
_symmetry_space_group_name_H-M   'P 1'
_cell_length_a   8.44988200
_cell_length_b   5.24299600
_cell_length_c   11.53161989
_cell_angle_alpha   76.42637840
_cell_angle_beta   90.00000000
_cell_angle_gamma   90.00000000
_symmetry_Int_Tables_number   1
_chemical_formula_structural   B2TeO6
_chemical_formula_sum   'B8 Te4 O24'
_cell_volume   496.61250561
_cell_formula_units_Z   4
loop_
 _symmetry_equiv_pos_site_id
 _symmetry_equiv_pos_as_xyz
  1  'x, y, z'
loop_
 _atom_site_type_symbol
 _atom_site_label
 _atom_site_symmetry_multiplicity
 _atom_site_fract_x
 _atom_site_fract_y
 _atom_site_fract_z
 _atom_site_occupancy
  B  B0  1  0.29010000  0.46101000  0.38098100  1
  B  B1  1  0.64248100  0.96323300  0.86852400  1
  B  B2  1  0.79010000  0.53899000  0.11901900  1
  B  B3  1  0.14248100  0.03676700  0.63147600  1
  B  B4  1  0.85751900  0.96323300  0.36852400  1
  B  B5  1  0.20990000  0.46101000  0.88098100  1
  B  B6  1  0.35751900  0.03676700  0.13147600  1
  B  B7  1  0.70990000  0.53899000  0.61901900  1
  Te  Te8  1  0.28778800  0.02292900  0.87219500  1
  Te  Te9  1  0.78778800  0.97707100  0.62780500  1
  Te  Te10  1  0.21221200  0.02292900  0.37219500  1
  Te  Te11  1  0.71221200  0.97707100  0.12780500  1
  O  O12  1  0.32311600  0.90934900  0.04254300  1
  O  O13  1  0.66098300  0.29292500  0.61300300  1
  O  O14  1  0.89424900  0.75247500  0.10677400  1
  O  O15  1  0.99268400  0.10880700  0.65919700  1
  O  O16  1  0.26716900  0.09045400  0.69927500  1
  O  O17  1  0.63502400  0.61581600  0.13647500  1
  O  O18  1  0.13502400  0.38418400  0.36352500  1
  O  O19  1  0.76716900  0.90954600  0.80072500  1
  O  O20  1  0.49268400  0.89119300  0.84080300  1
  O  O21  1  0.39424900  0.24752500  0.39322600  1
  O  O22  1  0.82311600  0.09065100  0.45745700  1
  O  O23  1  0.16098300  0.70707500  0.88699700  1
  O  O24  1  0.83901700  0.29292500  0.11300300  1
  O  O25  1  0.17688400  0.90934900  0.54254300  1
  O  O26  1  0.60575100  0.75247500  0.60677400  1
  O  O27  1  0.50731600  0.10880700  0.15919700  1
  O  O28  1  0.23283100  0.09045400  0.19927500  1
  O  O29  1  0.86497600  0.61581600  0.63647500  1
  O  O30  1  0.36497600  0.38418400  0.86352500  1
  O  O31  1  0.73283100  0.90954600  0.30072500  1
  O  O32  1  0.00731600  0.89119300  0.34080300  1
  O  O33  1  0.10575100  0.24752500  0.89322600  1
  O  O34  1  0.33901700  0.70707500  0.38699700  1
  O  O35  1  0.67688400  0.09065100  0.95745700  1
