# generated using pymatgen
data_V3OF11
_symmetry_space_group_name_H-M   'P 1'
_cell_length_a   5.26515400
_cell_length_b   5.46497301
_cell_length_c   14.83636829
_cell_angle_alpha   100.25778576
_cell_angle_beta   90.01131907
_cell_angle_gamma   90.00289363
_symmetry_Int_Tables_number   1
_chemical_formula_structural   V3OF11
_chemical_formula_sum   'V6 O2 F22'
_cell_volume   420.07716983
_cell_formula_units_Z   2
loop_
 _symmetry_equiv_pos_site_id
 _symmetry_equiv_pos_as_xyz
  1  'x, y, z'
loop_
 _atom_site_type_symbol
 _atom_site_label
 _atom_site_symmetry_multiplicity
 _atom_site_fract_x
 _atom_site_fract_y
 _atom_site_fract_z
 _atom_site_occupancy
  V  V0  1  0.00009100  0.00028200  0.99983400  1
  V  V1  1  0.49177900  0.84560400  0.66582600  1
  V  V2  1  0.00794600  0.67930600  0.33284000  1
  V  V3  1  0.50011700  0.50030400  0.99992000  1
  V  V4  1  0.97530500  0.37381300  0.66956000  1
  V  V5  1  0.52435200  0.20747100  0.33636400  1
  O  O6  1  0.79515000  0.62448100  0.68908900  1
  O  O7  1  0.70456900  0.45808000  0.35565300  1
  F  F8  1  0.79184500  0.97827500  0.35803100  1
  F  F9  1  0.69685300  0.81107400  0.02456600  1
  F  F10  1  0.29335700  0.86114400  0.31006800  1
  F  F11  1  0.91340200  0.95837900  0.88303500  1
  F  F12  1  0.58876600  0.78270000  0.54984000  1
  F  F13  1  0.91081100  0.61618500  0.21668100  1
  F  F14  1  0.42444700  0.86897000  0.78391200  1
  F  F15  1  0.07522000  0.70040400  0.45069700  1
  F  F16  1  0.41324000  0.53872500  0.11664200  1
  F  F17  1  0.80321300  0.31104600  0.02447600  1
  F  F18  1  0.19718800  0.68897600  0.97522700  1
  F  F19  1  0.28471000  0.53144300  0.64221600  1
  F  F20  1  0.21509400  0.36462800  0.30908400  1
  F  F21  1  0.58765200  0.45870100  0.88319700  1
  F  F22  1  0.92672100  0.27149700  0.55083100  1
  F  F23  1  0.57267700  0.10444100  0.21749500  1
  F  F24  1  0.09311300  0.36443500  0.78086400  1
  F  F25  1  0.40906200  0.19752600  0.44776400  1
  F  F26  1  0.08523000  0.04067200  0.11678600  1
  F  F27  1  0.70852200  0.14470600  0.69135400  1
  F  F28  1  0.30289800  0.18889800  0.97511800  1
  F  F29  1  0.20667200  0.02783500  0.64302800  1
