# generated using pymatgen
data_Cr4OF11
_symmetry_space_group_name_H-M   'P 1'
_cell_length_a   5.05806800
_cell_length_b   5.34240250
_cell_length_c   16.91962020
_cell_angle_alpha   83.27198452
_cell_angle_beta   81.41893974
_cell_angle_gamma   61.77913259
_symmetry_Int_Tables_number   1
_chemical_formula_structural   Cr4OF11
_chemical_formula_sum   'Cr8 O2 F22'
_cell_volume   397.77859900
_cell_formula_units_Z   2
loop_
 _symmetry_equiv_pos_site_id
 _symmetry_equiv_pos_as_xyz
  1  'x, y, z'
loop_
 _atom_site_type_symbol
 _atom_site_label
 _atom_site_symmetry_multiplicity
 _atom_site_fract_x
 _atom_site_fract_y
 _atom_site_fract_z
 _atom_site_occupancy
  Cr  Cr0  1  0.39185000  0.36550500  0.87900800  1
  Cr  Cr1  1  0.87275700  0.87155400  0.37530100  1
  Cr  Cr2  1  0.24833500  0.24975600  0.24994500  1
  Cr  Cr3  1  0.75757300  0.74913300  0.74931000  1
  Cr  Cr4  1  0.13813400  0.13502500  0.62222600  1
  Cr  Cr5  1  0.62121500  0.62747700  0.12384500  1
  Cr  Cr6  1  0.49003500  0.48927700  0.50419100  1
  Cr  Cr7  1  0.98024300  0.01123700  0.99696600  1
  O  O8  1  0.59571400  0.21751600  0.96801000  1
  O  O9  1  0.34407600  0.34251400  0.59313700  1
  F  F10  1  0.68639400  0.06353800  0.81220300  1
  F  F11  1  0.56342200  0.18752000  0.43732900  1
  F  F12  1  0.06959400  0.68641000  0.93727500  1
  F  F13  1  0.65430400  0.03174400  0.28179100  1
  F  F14  1  0.15599000  0.53019500  0.78532400  1
  F  F15  1  0.40494700  0.40721300  0.15656800  1
  F  F16  1  0.91252600  0.91282400  0.65687700  1
  F  F17  1  0.09457600  0.71803000  0.46877500  1
  F  F18  1  0.15884700  0.15746300  0.90602900  1
  F  F19  1  0.18290800  0.56207400  0.31249500  1
  F  F20  1  0.82179600  0.43627100  0.68673400  1
  F  F21  1  0.84413000  0.84231500  0.09180200  1
  F  F22  1  0.09293900  0.09075900  0.34332500  1
  F  F23  1  0.59448300  0.59398500  0.84288700  1
  F  F24  1  0.90334000  0.28174000  0.53123100  1
  F  F25  1  0.84404500  0.46860100  0.21742200  1
  F  F26  1  0.65351400  0.65495100  0.41041100  1
  F  F27  1  0.35059000  0.96543200  0.71667100  1
  F  F28  1  0.93083800  0.31237900  0.06151300  1
  F  F29  1  0.43223200  0.81122400  0.56223100  1
  F  F30  1  0.31572500  0.93738000  0.18749000  1
  F  F31  1  0.39292500  0.78896100  0.03167900  1
