# generated using pymatgen
data_BaP4O11
_symmetry_space_group_name_H-M   'P 1'
_cell_length_a   10.38307600
_cell_length_b   10.44117462
_cell_length_c   11.85012203
_cell_angle_alpha   112.42212905
_cell_angle_beta   110.97491006
_cell_angle_gamma   85.85782005
_symmetry_Int_Tables_number   1
_chemical_formula_structural   BaP4O11
_chemical_formula_sum   'Ba4 P16 O44'
_cell_volume   1105.79270294
_cell_formula_units_Z   4
loop_
 _symmetry_equiv_pos_site_id
 _symmetry_equiv_pos_as_xyz
  1  'x, y, z'
loop_
 _atom_site_type_symbol
 _atom_site_label
 _atom_site_symmetry_multiplicity
 _atom_site_fract_x
 _atom_site_fract_y
 _atom_site_fract_z
 _atom_site_occupancy
  Ba  Ba0  1  0.75240500  0.77969400  0.01755000  1
  Ba  Ba1  1  0.27023200  0.73378500  0.50341000  1
  Ba  Ba2  1  0.72976800  0.26621500  0.49659000  1
  Ba  Ba3  1  0.24759500  0.22030600  0.98245000  1
  P  P4  1  0.90948300  0.56779200  0.22447800  1
  P  P5  1  0.76316200  0.90175900  0.56858800  1
  P  P6  1  0.91193200  0.25319200  0.07635000  1
  P  P7  1  0.39675200  0.77377000  0.09937000  1
  P  P8  1  0.73721200  0.59194200  0.38701200  1
  P  P9  1  0.62425800  0.93115400  0.76253700  1
  P  P10  1  0.93629200  0.13743700  0.28923200  1
  P  P11  1  0.44311500  0.58819100  0.25394800  1
  P  P12  1  0.55688500  0.41180900  0.74605200  1
  P  P13  1  0.06370800  0.86256300  0.71076800  1
  P  P14  1  0.37574200  0.06884600  0.23746300  1
  P  P15  1  0.26278800  0.40805800  0.61298800  1
  P  P16  1  0.60324800  0.22623000  0.90063000  1
  P  P17  1  0.08806800  0.74680800  0.92365000  1
  P  P18  1  0.23683800  0.09824100  0.43141200  1
  P  P19  1  0.09051700  0.43220800  0.77552200  1
  O  O20  1  0.01858200  0.79700800  0.01962800  1
  O  O21  1  0.82938500  0.02023800  0.23121300  1
  O  O22  1  0.91293600  0.92762500  0.67398600  1
  O  O23  1  0.78701100  0.59279300  0.12386200  1
  O  O24  1  0.95562100  0.41032400  0.16677300  1
  O  O25  1  0.51166100  0.77810100  0.05586000  1
  O  O26  1  0.75861700  0.75796300  0.45295500  1
  O  O27  1  0.39280300  0.90404900  0.22272500  1
  O  O28  1  0.85987900  0.54942300  0.33572200  1
  O  O29  1  0.66450300  0.87124300  0.63107700  1
  O  O30  1  0.94906700  0.17481700  0.17117800  1
  O  O31  1  0.74657100  0.24111900  0.01841100  1
  O  O32  1  0.74472700  0.93104600  0.87832900  1
  O  O33  1  0.60407000  0.56277200  0.25831500  1
  O  O34  1  0.38676200  0.64542000  0.13425800  1
  O  O35  1  0.27440300  0.98546900  0.47990400  1
  O  O36  1  0.73136900  0.52268900  0.47268600  1
  O  O37  1  0.93341700  0.26611200  0.40051100  1
  O  O38  1  0.44827100  0.70201800  0.37917200  1
  O  O39  1  0.48810800  0.85971800  0.72489000  1
  O  O40  1  0.96047900  0.34117200  0.70999100  1
  O  O41  1  0.63443900  0.54784100  0.79674200  1
  O  O42  1  0.36556100  0.45215900  0.20325800  1
  O  O43  1  0.03952100  0.65882800  0.29000900  1
  O  O44  1  0.51189200  0.14028200  0.27511000  1
  O  O45  1  0.55172900  0.29798200  0.62082800  1
  O  O46  1  0.06658300  0.73388800  0.59948900  1
  O  O47  1  0.26863100  0.47731100  0.52731400  1
  O  O48  1  0.72559700  0.01453100  0.52009600  1
  O  O49  1  0.61323800  0.35458000  0.86574200  1
  O  O50  1  0.39593000  0.43722800  0.74168500  1
  O  O51  1  0.25527300  0.06895400  0.12167100  1
  O  O52  1  0.25342900  0.75888100  0.98158900  1
  O  O53  1  0.05093300  0.82518300  0.82882200  1
  O  O54  1  0.33549700  0.12875700  0.36892300  1
  O  O55  1  0.14012100  0.45057700  0.66427800  1
  O  O56  1  0.60719700  0.09595100  0.77727500  1
  O  O57  1  0.24138300  0.24203700  0.54704500  1
  O  O58  1  0.48833900  0.22189900  0.94414000  1
  O  O59  1  0.04437900  0.58967600  0.83322700  1
  O  O60  1  0.21298900  0.40720700  0.87613800  1
  O  O61  1  0.08706400  0.07237500  0.32601400  1
  O  O62  1  0.17061500  0.97976200  0.76878700  1
  O  O63  1  0.98141800  0.20299200  0.98037200  1
