# generated using pymatgen
data_Dy2P4O13
_symmetry_space_group_name_H-M   'P 1'
_cell_length_a   9.62847500
_cell_length_b   8.95021800
_cell_length_c   13.99492016
_cell_angle_alpha   73.14863113
_cell_angle_beta   90.00000000
_cell_angle_gamma   90.00000000
_symmetry_Int_Tables_number   1
_chemical_formula_structural   Dy2P4O13
_chemical_formula_sum   'Dy8 P16 O52'
_cell_volume   1154.25217586
_cell_formula_units_Z   4
loop_
 _symmetry_equiv_pos_site_id
 _symmetry_equiv_pos_as_xyz
  1  'x, y, z'
loop_
 _atom_site_type_symbol
 _atom_site_label
 _atom_site_symmetry_multiplicity
 _atom_site_fract_x
 _atom_site_fract_y
 _atom_site_fract_z
 _atom_site_occupancy
  Dy  Dy0  1  0.99505100  0.97575900  0.72206800  1
  Dy  Dy1  1  0.50494900  0.97575900  0.22206800  1
  Dy  Dy2  1  0.00091200  0.55131000  0.73638400  1
  Dy  Dy3  1  0.50091200  0.44869000  0.76361600  1
  Dy  Dy4  1  0.49908800  0.55131000  0.23638400  1
  Dy  Dy5  1  0.99908800  0.44869000  0.26361600  1
  Dy  Dy6  1  0.49505100  0.02424100  0.77793200  1
  Dy  Dy7  1  0.00494900  0.02424100  0.27793200  1
  P  P8  1  0.76045200  0.84868000  0.93804300  1
  P  P9  1  0.26681200  0.71103200  0.84561700  1
  P  P10  1  0.70703500  0.78334600  0.65687100  1
  P  P11  1  0.73954800  0.84868000  0.43804300  1
  P  P12  1  0.75159200  0.50566200  0.94099500  1
  P  P13  1  0.23318800  0.71103200  0.34561700  1
  P  P14  1  0.79296500  0.78334600  0.15687100  1
  P  P15  1  0.25159200  0.49433800  0.55900500  1
  P  P16  1  0.74840800  0.50566200  0.44099500  1
  P  P17  1  0.20703500  0.21665400  0.84312900  1
  P  P18  1  0.76681200  0.28896800  0.65438300  1
  P  P19  1  0.24840800  0.49433800  0.05900500  1
  P  P20  1  0.26045200  0.15132000  0.56195700  1
  P  P21  1  0.29296500  0.21665400  0.34312900  1
  P  P22  1  0.73318800  0.28896800  0.15438300  1
  P  P23  1  0.23954800  0.15132000  0.06195700  1
  O  O24  1  0.63199400  0.94807200  0.91164500  1
  O  O25  1  0.87761400  0.88474600  0.86430800  1
  O  O26  1  0.33369800  0.85713200  0.85894300  1
  O  O27  1  0.62929800  0.88118400  0.71144000  1
  O  O28  1  0.86800600  0.94807200  0.41164500  1
  O  O29  1  0.67881100  0.86753100  0.53975800  1
  O  O30  1  0.71132000  0.66846400  0.96369300  1
  O  O31  1  0.13272100  0.74695700  0.78074600  1
  O  O32  1  0.86755800  0.78332200  0.67233100  1
  O  O33  1  0.62238600  0.88474600  0.36430800  1
  O  O34  1  0.20639400  0.60654300  0.95246800  1
  O  O35  1  0.16630200  0.85713200  0.35894300  1
  O  O36  1  0.87070200  0.88118400  0.21144000  1
  O  O37  1  0.36799700  0.61277500  0.80690000  1
  O  O38  1  0.87948800  0.52901900  0.87698700  1
  O  O39  1  0.65210700  0.61843900  0.67800900  1
  O  O40  1  0.82118900  0.86753100  0.03975800  1
  O  O41  1  0.78868000  0.66846400  0.46369300  1
  O  O42  1  0.36727900  0.74695700  0.28074600  1
  O  O43  1  0.63244200  0.78332200  0.17233100  1
  O  O44  1  0.12367100  0.55464000  0.59742100  1
  O  O45  1  0.29360600  0.60654300  0.45246800  1
  O  O46  1  0.62367100  0.44536000  0.90257900  1
  O  O47  1  0.15210700  0.38156100  0.82199100  1
  O  O48  1  0.37948800  0.47098100  0.62301300  1
  O  O49  1  0.13200300  0.61277500  0.30690000  1
  O  O50  1  0.86799700  0.38722500  0.69310000  1
  O  O51  1  0.62051200  0.52901900  0.37698700  1
  O  O52  1  0.84789300  0.61843900  0.17800900  1
  O  O53  1  0.37632900  0.55464000  0.09742100  1
  O  O54  1  0.70639400  0.39345700  0.54753200  1
  O  O55  1  0.87632900  0.44536000  0.40257900  1
  O  O56  1  0.36755800  0.21667800  0.82766900  1
  O  O57  1  0.63272100  0.25304300  0.71925400  1
  O  O58  1  0.21132000  0.33153600  0.53630700  1
  O  O59  1  0.17881100  0.13246900  0.96024200  1
  O  O60  1  0.34789300  0.38156100  0.32199100  1
  O  O61  1  0.12051200  0.47098100  0.12301300  1
  O  O62  1  0.63200300  0.38722500  0.19310000  1
  O  O63  1  0.12929800  0.11881600  0.78856000  1
  O  O64  1  0.83369800  0.14286800  0.64105700  1
  O  O65  1  0.79360600  0.39345700  0.04753200  1
  O  O66  1  0.37761400  0.11525400  0.63569200  1
  O  O67  1  0.13244200  0.21667800  0.32766900  1
  O  O68  1  0.86727900  0.25304300  0.21925400  1
  O  O69  1  0.28868000  0.33153600  0.03630700  1
  O  O70  1  0.32118900  0.13246900  0.46024200  1
  O  O71  1  0.13199400  0.05192800  0.58835500  1
  O  O72  1  0.37070200  0.11881600  0.28856000  1
  O  O73  1  0.66630200  0.14286800  0.14105700  1
  O  O74  1  0.12238600  0.11525400  0.13569200  1
  O  O75  1  0.36800600  0.05192800  0.08835500  1
