# generated using pymatgen
data_Na2UF6
_symmetry_space_group_name_H-M   'P 1'
_cell_length_a   6.07632988
_cell_length_b   6.07632988
_cell_length_c   3.73468100
_cell_angle_alpha   90.00000000
_cell_angle_beta   90.00000000
_cell_angle_gamma   119.99999866
_symmetry_Int_Tables_number   1
_chemical_formula_structural   Na2UF6
_chemical_formula_sum   'Na2 U1 F6'
_cell_volume   119.41718685
_cell_formula_units_Z   1
loop_
 _symmetry_equiv_pos_site_id
 _symmetry_equiv_pos_as_xyz
  1  'x, y, z'
loop_
 _atom_site_type_symbol
 _atom_site_label
 _atom_site_symmetry_multiplicity
 _atom_site_fract_x
 _atom_site_fract_y
 _atom_site_fract_z
 _atom_site_occupancy
  Na  Na0  1  0.33333300  0.66666700  0.42057500  1
  Na  Na1  1  0.66666700  0.33333300  0.57942500  1
  U  U2  1  0.00000000  0.00000000  0.00000000  1
  F  F3  1  0.75141300  0.75141300  0.50000000  1
  F  F4  1  0.00000000  0.24858700  0.50000000  1
  F  F5  1  0.24858700  0.00000000  0.50000000  1
  F  F6  1  0.62929600  0.00000000  0.00000000  1
  F  F7  1  0.00000000  0.62929600  0.00000000  1
  F  F8  1  0.37070400  0.37070400  0.00000000  1
