# generated using pymatgen
data_Y2ReO5
_symmetry_space_group_name_H-M   'P 1'
_cell_length_a   8.57734200
_cell_length_b   8.57734200
_cell_length_c   5.68964900
_cell_angle_alpha   90.00000000
_cell_angle_beta   90.00000000
_cell_angle_gamma   90.00000000
_symmetry_Int_Tables_number   1
_chemical_formula_structural   Y2ReO5
_chemical_formula_sum   'Y8 Re4 O20'
_cell_volume   418.59200467
_cell_formula_units_Z   4
loop_
 _symmetry_equiv_pos_site_id
 _symmetry_equiv_pos_as_xyz
  1  'x, y, z'
loop_
 _atom_site_type_symbol
 _atom_site_label
 _atom_site_symmetry_multiplicity
 _atom_site_fract_x
 _atom_site_fract_y
 _atom_site_fract_z
 _atom_site_occupancy
  Y  Y0  1  0.36000400  0.35024700  0.24981200  1
  Y  Y1  1  0.64975300  0.36000400  0.75018800  1
  Y  Y2  1  0.35024700  0.63999600  0.75018800  1
  Y  Y3  1  0.63999600  0.64975300  0.24981200  1
  Y  Y4  1  0.86000400  0.85024700  0.75018800  1
  Y  Y5  1  0.14975300  0.86000400  0.24981200  1
  Y  Y6  1  0.85024700  0.13999600  0.24981200  1
  Y  Y7  1  0.13999600  0.14975300  0.75018800  1
  Re  Re8  1  0.00000000  0.50000000  0.54494200  1
  Re  Re9  1  0.00000000  0.50000000  0.14892800  1
  Re  Re10  1  0.50000000  0.00000000  0.45505800  1
  Re  Re11  1  0.50000000  0.00000000  0.85107200  1
  O  O12  1  0.90621400  0.29746300  0.60231400  1
  O  O13  1  0.09514100  0.29767200  0.09916700  1
  O  O14  1  0.20253700  0.40621400  0.60231400  1
  O  O15  1  0.79767200  0.40485900  0.09916700  1
  O  O16  1  0.50000000  0.50000000  0.50000000  1
  O  O17  1  0.50000000  0.50000000  0.00000000  1
  O  O18  1  0.20232800  0.59514100  0.09916700  1
  O  O19  1  0.79746300  0.59378600  0.60231400  1
  O  O20  1  0.90485900  0.70232800  0.09916700  1
  O  O21  1  0.09378600  0.70253700  0.60231400  1
  O  O22  1  0.40621400  0.79746300  0.39768600  1
  O  O23  1  0.59514100  0.79767200  0.90083300  1
  O  O24  1  0.70253700  0.90621400  0.39768600  1
  O  O25  1  0.29767200  0.90485900  0.90083300  1
  O  O26  1  0.00000000  0.00000000  0.50000000  1
  O  O27  1  0.00000000  0.00000000  0.00000000  1
  O  O28  1  0.70232800  0.09514100  0.90083300  1
  O  O29  1  0.29746300  0.09378600  0.39768600  1
  O  O30  1  0.40485900  0.20232800  0.90083300  1
  O  O31  1  0.59378600  0.20253700  0.39768600  1
