# generated using pymatgen
data_Na3CuO2
_symmetry_space_group_name_H-M   'P 1'
_cell_length_a   7.86753100
_cell_length_b   7.86753100
_cell_length_c   11.58227400
_cell_angle_alpha   90.00000000
_cell_angle_beta   90.00000000
_cell_angle_gamma   90.00000000
_symmetry_Int_Tables_number   1
_chemical_formula_structural   Na3CuO2
_chemical_formula_sum   'Na24 Cu8 O16'
_cell_volume   716.92010609
_cell_formula_units_Z   8
loop_
 _symmetry_equiv_pos_site_id
 _symmetry_equiv_pos_as_xyz
  1  'x, y, z'
loop_
 _atom_site_type_symbol
 _atom_site_label
 _atom_site_symmetry_multiplicity
 _atom_site_fract_x
 _atom_site_fract_y
 _atom_site_fract_z
 _atom_site_occupancy
  Na  Na0  1  0.01516200  0.98483800  0.75000000  1
  Na  Na1  1  0.02629800  0.55494500  0.74839600  1
  Na  Na2  1  0.04779800  0.04779800  0.50000000  1
  Na  Na3  1  0.05494500  0.47370200  0.49839600  1
  Na  Na4  1  0.15079500  0.26466400  0.89534400  1
  Na  Na5  1  0.23533600  0.65079500  0.14534400  1
  Na  Na6  1  0.26466400  0.15079500  0.10465600  1
  Na  Na7  1  0.34920500  0.76466400  0.35465600  1
  Na  Na8  1  0.44505500  0.97370200  0.75160400  1
  Na  Na9  1  0.45220200  0.54779800  0.75000000  1
  Na  Na10  1  0.47370200  0.05494500  0.50160400  1
  Na  Na11  1  0.48483800  0.48483800  0.50000000  1
  Na  Na12  1  0.51516200  0.51516200  0.00000000  1
  Na  Na13  1  0.52629800  0.94505500  0.00160400  1
  Na  Na14  1  0.54779800  0.45220200  0.25000000  1
  Na  Na15  1  0.55494500  0.02629800  0.25160400  1
  Na  Na16  1  0.65079500  0.23533600  0.85465600  1
  Na  Na17  1  0.73533600  0.84920500  0.60465600  1
  Na  Na18  1  0.76466400  0.34920500  0.64534400  1
  Na  Na19  1  0.84920500  0.73533600  0.39534400  1
  Na  Na20  1  0.94505500  0.52629800  0.99839600  1
  Na  Na21  1  0.95220200  0.95220200  0.00000000  1
  Na  Na22  1  0.97370200  0.44505500  0.24839600  1
  Na  Na23  1  0.98483800  0.01516200  0.25000000  1
  Cu  Cu24  1  0.23556300  0.76434300  0.59133100  1
  Cu  Cu25  1  0.23565700  0.76443700  0.90866900  1
  Cu  Cu26  1  0.26434300  0.26443700  0.34133100  1
  Cu  Cu27  1  0.26443700  0.26434300  0.65866900  1
  Cu  Cu28  1  0.73556300  0.73565700  0.15866900  1
  Cu  Cu29  1  0.73565700  0.73556300  0.84133100  1
  Cu  Cu30  1  0.76434300  0.23556300  0.40866900  1
  Cu  Cu31  1  0.76443700  0.23565700  0.09133100  1
  O  O32  1  0.00601300  0.76145500  0.58829600  1
  O  O33  1  0.03472100  0.26600900  0.66600100  1
  O  O34  1  0.23399100  0.53472100  0.91600100  1
  O  O35  1  0.23854500  0.99398700  0.91170400  1
  O  O36  1  0.26145500  0.49398700  0.33829600  1
  O  O37  1  0.26600900  0.03472100  0.33399900  1
  O  O38  1  0.46527900  0.76600900  0.58399900  1
  O  O39  1  0.49398700  0.26145500  0.66170400  1
  O  O40  1  0.50601300  0.73854500  0.16170400  1
  O  O41  1  0.53472100  0.23399100  0.08399900  1
  O  O42  1  0.73399100  0.96527900  0.83399900  1
  O  O43  1  0.73854500  0.50601300  0.83829600  1
  O  O44  1  0.76145500  0.00601300  0.41170400  1
  O  O45  1  0.76600900  0.46527900  0.41600100  1
  O  O46  1  0.96527900  0.73399100  0.16600100  1
  O  O47  1  0.99398700  0.23854500  0.08829600  1
