# generated using pymatgen
data_ZnTe2O5
_symmetry_space_group_name_H-M   'P 1'
_cell_length_a   8.65333900
_cell_length_b   9.11250600
_cell_length_c   12.35937800
_cell_angle_alpha   90.00000000
_cell_angle_beta   90.00000000
_cell_angle_gamma   90.00000000
_symmetry_Int_Tables_number   1
_chemical_formula_structural   ZnTe2O5
_chemical_formula_sum   'Zn8 Te16 O40'
_cell_volume   974.58149303
_cell_formula_units_Z   8
loop_
 _symmetry_equiv_pos_site_id
 _symmetry_equiv_pos_as_xyz
  1  'x, y, z'
loop_
 _atom_site_type_symbol
 _atom_site_label
 _atom_site_symmetry_multiplicity
 _atom_site_fract_x
 _atom_site_fract_y
 _atom_site_fract_z
 _atom_site_occupancy
  Zn  Zn0  1  0.51836500  0.01478600  0.12301000  1
  Zn  Zn1  1  0.51836500  0.01478600  0.37699000  1
  Zn  Zn2  1  0.01836500  0.48521400  0.62301000  1
  Zn  Zn3  1  0.01836500  0.48521400  0.87699000  1
  Zn  Zn4  1  0.98163500  0.51478600  0.12301000  1
  Zn  Zn5  1  0.98163500  0.51478600  0.37699000  1
  Zn  Zn6  1  0.48163500  0.98521400  0.87699000  1
  Zn  Zn7  1  0.48163500  0.98521400  0.62301000  1
  Te  Te8  1  0.19856900  0.10475600  0.25000000  1
  Te  Te9  1  0.83855400  0.14946800  0.51464800  1
  Te  Te10  1  0.83855400  0.14946800  0.98535200  1
  Te  Te11  1  0.18222200  0.16668400  0.75000000  1
  Te  Te12  1  0.68222200  0.33331600  0.25000000  1
  Te  Te13  1  0.33855400  0.35053200  0.01464800  1
  Te  Te14  1  0.33855400  0.35053200  0.48535200  1
  Te  Te15  1  0.69856900  0.39524400  0.75000000  1
  Te  Te16  1  0.30143100  0.60475600  0.25000000  1
  Te  Te17  1  0.66144600  0.64946800  0.51464800  1
  Te  Te18  1  0.66144600  0.64946800  0.98535200  1
  Te  Te19  1  0.31777800  0.66668400  0.75000000  1
  Te  Te20  1  0.81777800  0.83331600  0.25000000  1
  Te  Te21  1  0.16144600  0.85053200  0.01464800  1
  Te  Te22  1  0.16144600  0.85053200  0.48535200  1
  Te  Te23  1  0.80143100  0.89524400  0.75000000  1
  O  O24  1  0.90667600  0.00832700  0.62773300  1
  O  O25  1  0.90667600  0.00832700  0.87226700  1
  O  O26  1  0.63348100  0.03148300  0.75000000  1
  O  O27  1  0.62040700  0.11803800  0.51223100  1
  O  O28  1  0.62040700  0.11803800  0.98776900  1
  O  O29  1  0.65798400  0.12366100  0.25000000  1
  O  O30  1  0.32229100  0.15613800  0.63054800  1
  O  O31  1  0.32229100  0.15613800  0.86945200  1
  O  O32  1  0.34970900  0.19146100  0.11418200  1
  O  O33  1  0.34970900  0.19146100  0.38581800  1
  O  O34  1  0.84970900  0.30853900  0.61418200  1
  O  O35  1  0.84970900  0.30853900  0.88581800  1
  O  O36  1  0.82229100  0.34386200  0.13054800  1
  O  O37  1  0.82229100  0.34386200  0.36945200  1
  O  O38  1  0.15798400  0.37633900  0.75000000  1
  O  O39  1  0.12040700  0.38196200  0.01223100  1
  O  O40  1  0.12040700  0.38196200  0.48776900  1
  O  O41  1  0.13348100  0.46851700  0.25000000  1
  O  O42  1  0.40667600  0.49167300  0.37226700  1
  O  O43  1  0.40667600  0.49167300  0.12773300  1
  O  O44  1  0.59332400  0.50832700  0.87226700  1
  O  O45  1  0.59332400  0.50832700  0.62773300  1
  O  O46  1  0.86651900  0.53148300  0.75000000  1
  O  O47  1  0.87959300  0.61803800  0.51223100  1
  O  O48  1  0.87959300  0.61803800  0.98776900  1
  O  O49  1  0.84201600  0.62366100  0.25000000  1
  O  O50  1  0.17770900  0.65613800  0.86945200  1
  O  O51  1  0.17770900  0.65613800  0.63054800  1
  O  O52  1  0.15029100  0.69146100  0.11418200  1
  O  O53  1  0.15029100  0.69146100  0.38581800  1
  O  O54  1  0.65029100  0.80853900  0.88581800  1
  O  O55  1  0.65029100  0.80853900  0.61418200  1
  O  O56  1  0.67770900  0.84386200  0.13054800  1
  O  O57  1  0.67770900  0.84386200  0.36945200  1
  O  O58  1  0.34201600  0.87633900  0.75000000  1
  O  O59  1  0.37959300  0.88196200  0.01223100  1
  O  O60  1  0.37959300  0.88196200  0.48776900  1
  O  O61  1  0.36651900  0.96851700  0.25000000  1
  O  O62  1  0.09332400  0.99167300  0.12773300  1
  O  O63  1  0.09332400  0.99167300  0.37226700  1
