# generated using pymatgen
data_Hf2N2O
_symmetry_space_group_name_H-M   'P 1'
_cell_length_a   8.72354500
_cell_length_b   8.72698143
_cell_length_c   8.72707297
_cell_angle_alpha   109.38088796
_cell_angle_beta   109.33160363
_cell_angle_gamma   109.48250340
_symmetry_Int_Tables_number   1
_chemical_formula_structural   Hf2N2O
_chemical_formula_sum   'Hf16 N16 O8'
_cell_volume   512.82558134
_cell_formula_units_Z   8
loop_
 _symmetry_equiv_pos_site_id
 _symmetry_equiv_pos_as_xyz
  1  'x, y, z'
loop_
 _atom_site_type_symbol
 _atom_site_label
 _atom_site_symmetry_multiplicity
 _atom_site_fract_x
 _atom_site_fract_y
 _atom_site_fract_z
 _atom_site_occupancy
  Hf  Hf0  1  0.99652900  0.48916000  0.99094100  1
  Hf  Hf1  1  0.21887000  0.25819500  0.96996000  1
  Hf  Hf2  1  0.75391800  0.97440200  0.72339200  1
  Hf  Hf3  1  0.24364500  0.53150300  0.78177100  1
  Hf  Hf4  1  0.03275800  0.28204700  0.25363000  1
  Hf  Hf5  1  0.53448500  0.78719100  0.25038200  1
  Hf  Hf6  1  0.29091700  0.75500500  0.54177100  1
  Hf  Hf7  1  0.71386500  0.24828000  0.46453200  1
  Hf  Hf8  1  0.98608000  0.98892100  0.48024600  1
  Hf  Hf9  1  0.51028400  0.01804600  0.01330900  1
  Hf  Hf10  1  0.50737200  0.49996900  0.51068800  1
  Hf  Hf11  1  0.46800500  0.21009300  0.75075600  1
  Hf  Hf12  1  0.95305400  0.70647600  0.73964200  1
  Hf  Hf13  1  0.25732800  0.03725900  0.29759100  1
  Hf  Hf14  1  0.74372000  0.46358300  0.20911100  1
  Hf  Hf15  1  0.78625700  0.74685100  0.03262300  1
  N  N16  1  0.27656300  0.53322800  0.04670800  1
  N  N17  1  0.26005800  0.48942100  0.53450900  1
  N  N18  1  0.44896800  0.98347300  0.22117900  1
  N  N19  1  0.77454200  0.04599000  0.51766200  1
  N  N20  1  0.46291900  0.23776500  0.01091000  1
  N  N21  1  0.22308100  0.94929700  0.48831300  1
  N  N22  1  0.72835100  0.74024600  0.77237500  1
  N  N23  1  0.97039000  0.46048200  0.73004900  1
  N  N24  1  0.77357600  0.22937100  0.23713000  1
  N  N25  1  0.99188900  0.03355800  0.25913200  1
  N  N26  1  0.54248900  0.00558700  0.77062700  1
  N  N27  1  0.73940500  0.51702100  0.46633200  1
  N  N28  1  0.75761600  0.72824500  0.26841700  1
  N  N29  1  0.95843700  0.22735900  0.96944600  1
  N  N30  1  0.73083200  0.46530000  0.95281300  1
  N  N31  1  0.50705000  0.27323800  0.54359600  1
  O  O32  1  0.48185700  0.72502400  0.44932600  1
  O  O33  1  0.04479400  0.77217300  0.03424500  1
  O  O34  1  0.23474000  0.27169900  0.72799300  1
  O  O35  1  0.22725400  0.77334600  0.76284800  1
  O  O36  1  0.02154600  0.96650700  0.74154900  1
  O  O37  1  0.53182900  0.75992400  0.98416300  1
  O  O38  1  0.27699800  0.26479900  0.22752700  1
  O  O39  1  0.03773100  0.54996800  0.27280700  1
