# generated using pymatgen
data_Ho2P4O13
_symmetry_space_group_name_H-M   'P 1'
_cell_length_a   9.60698600
_cell_length_b   8.86007400
_cell_length_c   13.96089275
_cell_angle_alpha   73.56740601
_cell_angle_beta   90.00000000
_cell_angle_gamma   90.00000000
_symmetry_Int_Tables_number   1
_chemical_formula_structural   Ho2P4O13
_chemical_formula_sum   'Ho8 P16 O52'
_cell_volume   1139.79219640
_cell_formula_units_Z   4
loop_
 _symmetry_equiv_pos_site_id
 _symmetry_equiv_pos_as_xyz
  1  'x, y, z'
loop_
 _atom_site_type_symbol
 _atom_site_label
 _atom_site_symmetry_multiplicity
 _atom_site_fract_x
 _atom_site_fract_y
 _atom_site_fract_z
 _atom_site_occupancy
  Ho  Ho0  1  0.99625000  0.97356700  0.72161700  1
  Ho  Ho1  1  0.50375000  0.97356700  0.22161700  1
  Ho  Ho2  1  0.00106400  0.55272700  0.73752800  1
  Ho  Ho3  1  0.50106400  0.44727300  0.76247200  1
  Ho  Ho4  1  0.49893600  0.55272700  0.23752800  1
  Ho  Ho5  1  0.99893600  0.44727300  0.26247200  1
  Ho  Ho6  1  0.49625000  0.02643300  0.77838300  1
  Ho  Ho7  1  0.00375000  0.02643300  0.27838300  1
  P  P8  1  0.76017600  0.85250000  0.93712600  1
  P  P9  1  0.26883700  0.71136500  0.84631300  1
  P  P10  1  0.70599900  0.78328900  0.65669300  1
  P  P11  1  0.73982400  0.85250000  0.43712600  1
  P  P12  1  0.75061500  0.50507100  0.93998200  1
  P  P13  1  0.23116300  0.71136500  0.34631300  1
  P  P14  1  0.79400100  0.78328900  0.15669300  1
  P  P15  1  0.25061500  0.49492900  0.56001800  1
  P  P16  1  0.74938500  0.50507100  0.43998200  1
  P  P17  1  0.20599900  0.21671100  0.84330700  1
  P  P18  1  0.76883700  0.28863500  0.65368700  1
  P  P19  1  0.24938500  0.49492900  0.06001800  1
  P  P20  1  0.26017600  0.14750000  0.56287400  1
  P  P21  1  0.29400100  0.21671100  0.34330700  1
  P  P22  1  0.73116300  0.28863500  0.15368700  1
  P  P23  1  0.23982400  0.14750000  0.06287400  1
  O  O24  1  0.63305500  0.95588200  0.91182700  1
  O  O25  1  0.87771500  0.88774900  0.86333800  1
  O  O26  1  0.33513700  0.85997200  0.85885100  1
  O  O27  1  0.62995900  0.88111000  0.71328200  1
  O  O28  1  0.86694500  0.95588200  0.41182700  1
  O  O29  1  0.67810900  0.86966400  0.53974900  1
  O  O30  1  0.70763300  0.67103800  0.96105400  1
  O  O31  1  0.13498200  0.74728200  0.78065900  1
  O  O32  1  0.86696500  0.78118000  0.67296200  1
  O  O33  1  0.62228500  0.88774900  0.36333800  1
  O  O34  1  0.20763900  0.60687000  0.95311500  1
  O  O35  1  0.16486300  0.85997200  0.35885100  1
  O  O36  1  0.87004100  0.88111000  0.21328200  1
  O  O37  1  0.37038800  0.61108800  0.80815100  1
  O  O38  1  0.87972700  0.52967400  0.87690700  1
  O  O39  1  0.65017300  0.61739700  0.67647900  1
  O  O40  1  0.82189100  0.86966400  0.03974900  1
  O  O41  1  0.79236700  0.67103800  0.46105400  1
  O  O42  1  0.36501800  0.74728200  0.28065900  1
  O  O43  1  0.63303500  0.78118000  0.17296200  1
  O  O44  1  0.12475300  0.56003100  0.59910400  1
  O  O45  1  0.29236100  0.60687000  0.45311500  1
  O  O46  1  0.62475300  0.43996900  0.90089600  1
  O  O47  1  0.15017300  0.38260300  0.82352100  1
  O  O48  1  0.37972700  0.47032600  0.62309300  1
  O  O49  1  0.12961200  0.61108800  0.30815100  1
  O  O50  1  0.87038800  0.38891200  0.69184900  1
  O  O51  1  0.62027300  0.52967400  0.37690700  1
  O  O52  1  0.84982700  0.61739700  0.17647900  1
  O  O53  1  0.37524700  0.56003100  0.09910400  1
  O  O54  1  0.70763900  0.39313000  0.54688500  1
  O  O55  1  0.87524700  0.43996900  0.40089600  1
  O  O56  1  0.36696500  0.21882000  0.82703800  1
  O  O57  1  0.63498200  0.25271800  0.71934100  1
  O  O58  1  0.20763300  0.32896200  0.53894600  1
  O  O59  1  0.17810900  0.13033600  0.96025100  1
  O  O60  1  0.34982700  0.38260300  0.32352100  1
  O  O61  1  0.12027300  0.47032600  0.12309300  1
  O  O62  1  0.62961200  0.38891200  0.19184900  1
  O  O63  1  0.12995900  0.11889000  0.78671800  1
  O  O64  1  0.83513700  0.14002800  0.64114900  1
  O  O65  1  0.79236100  0.39313000  0.04688500  1
  O  O66  1  0.37771500  0.11225100  0.63666200  1
  O  O67  1  0.13303500  0.21882000  0.32703800  1
  O  O68  1  0.86501800  0.25271800  0.21934100  1
  O  O69  1  0.29236700  0.32896200  0.03894600  1
  O  O70  1  0.32189100  0.13033600  0.46025100  1
  O  O71  1  0.13305500  0.04411800  0.58817300  1
  O  O72  1  0.37004100  0.11889000  0.28671800  1
  O  O73  1  0.66486300  0.14002800  0.14114900  1
  O  O74  1  0.12228500  0.11225100  0.13666200  1
  O  O75  1  0.36694500  0.04411800  0.08817300  1
