# generated using pymatgen
data_HoTa3O9
_symmetry_space_group_name_H-M   'P 1'
_cell_length_a   6.46385200
_cell_length_b   7.63338800
_cell_length_c   12.58638400
_cell_angle_alpha   90.00000000
_cell_angle_beta   90.00000000
_cell_angle_gamma   90.00000000
_symmetry_Int_Tables_number   1
_chemical_formula_structural   HoTa3O9
_chemical_formula_sum   'Ho4 Ta12 O36'
_cell_volume   621.02590938
_cell_formula_units_Z   4
loop_
 _symmetry_equiv_pos_site_id
 _symmetry_equiv_pos_as_xyz
  1  'x, y, z'
loop_
 _atom_site_type_symbol
 _atom_site_label
 _atom_site_symmetry_multiplicity
 _atom_site_fract_x
 _atom_site_fract_y
 _atom_site_fract_z
 _atom_site_occupancy
  Ho  Ho0  1  0.05623900  0.25000000  0.46341600  1
  Ho  Ho1  1  0.44376100  0.75000000  0.96341600  1
  Ho  Ho2  1  0.55623900  0.25000000  0.03658400  1
  Ho  Ho3  1  0.94376100  0.75000000  0.53658400  1
  Ta  Ta4  1  0.00000000  0.00000000  0.00000000  1
  Ta  Ta5  1  0.00000000  0.50000000  0.00000000  1
  Ta  Ta6  1  0.20492600  0.00301300  0.71286100  1
  Ta  Ta7  1  0.20492600  0.49698700  0.71286100  1
  Ta  Ta8  1  0.29507400  0.50301300  0.21286100  1
  Ta  Ta9  1  0.29507400  0.99698700  0.21286100  1
  Ta  Ta10  1  0.50000000  0.00000000  0.50000000  1
  Ta  Ta11  1  0.50000000  0.50000000  0.50000000  1
  Ta  Ta12  1  0.70492600  0.00301300  0.78713900  1
  Ta  Ta13  1  0.70492600  0.49698700  0.78713900  1
  Ta  Ta14  1  0.79507400  0.50301300  0.28713900  1
  Ta  Ta15  1  0.79507400  0.99698700  0.28713900  1
  O  O16  1  0.01623200  0.04285300  0.84290100  1
  O  O17  1  0.01623200  0.45714700  0.84290100  1
  O  O18  1  0.07960900  0.75000000  0.97471400  1
  O  O19  1  0.10338000  0.03695700  0.33238100  1
  O  O20  1  0.10338000  0.46304300  0.33238100  1
  O  O21  1  0.16452500  0.25000000  0.67003200  1
  O  O22  1  0.20371000  0.75000000  0.69573900  1
  O  O23  1  0.20534900  0.53561000  0.53666800  1
  O  O24  1  0.20534900  0.96439000  0.53666800  1
  O  O25  1  0.29465100  0.03561000  0.03666800  1
  O  O26  1  0.29465100  0.46439000  0.03666800  1
  O  O27  1  0.29629000  0.25000000  0.19573900  1
  O  O28  1  0.33547500  0.75000000  0.17003200  1
  O  O29  1  0.39662000  0.53695700  0.83238100  1
  O  O30  1  0.39662000  0.96304300  0.83238100  1
  O  O31  1  0.42039100  0.25000000  0.47471400  1
  O  O32  1  0.48376800  0.54285300  0.34290100  1
  O  O33  1  0.48376800  0.95714700  0.34290100  1
  O  O34  1  0.51623200  0.04285300  0.65709900  1
  O  O35  1  0.51623200  0.45714700  0.65709900  1
  O  O36  1  0.57960900  0.75000000  0.52528600  1
  O  O37  1  0.60338000  0.03695700  0.16761900  1
  O  O38  1  0.60338000  0.46304300  0.16761900  1
  O  O39  1  0.66452500  0.25000000  0.82996800  1
  O  O40  1  0.70371000  0.75000000  0.80426100  1
  O  O41  1  0.70534900  0.53561000  0.96333200  1
  O  O42  1  0.70534900  0.96439000  0.96333200  1
  O  O43  1  0.79465100  0.03561000  0.46333200  1
  O  O44  1  0.79465100  0.46439000  0.46333200  1
  O  O45  1  0.79629000  0.25000000  0.30426100  1
  O  O46  1  0.83547500  0.75000000  0.32996800  1
  O  O47  1  0.89662000  0.53695700  0.66761900  1
  O  O48  1  0.89662000  0.96304300  0.66761900  1
  O  O49  1  0.92039100  0.25000000  0.02528600  1
  O  O50  1  0.98376800  0.54285300  0.15709900  1
  O  O51  1  0.98376800  0.95714700  0.15709900  1
