# generated using pymatgen
data_DyP5O14
_symmetry_space_group_name_H-M   'P 1'
_cell_length_a   8.82140000
_cell_length_b   9.04379400
_cell_length_c   12.89497300
_cell_angle_alpha   90.00000000
_cell_angle_beta   90.00000000
_cell_angle_gamma   90.00000000
_symmetry_Int_Tables_number   1
_chemical_formula_structural   DyP5O14
_chemical_formula_sum   'Dy4 P20 O56'
_cell_volume   1028.74707600
_cell_formula_units_Z   4
loop_
 _symmetry_equiv_pos_site_id
 _symmetry_equiv_pos_as_xyz
  1  'x, y, z'
loop_
 _atom_site_type_symbol
 _atom_site_label
 _atom_site_symmetry_multiplicity
 _atom_site_fract_x
 _atom_site_fract_y
 _atom_site_fract_z
 _atom_site_occupancy
  Dy  Dy0  1  0.02055800  0.06051200  0.25000000  1
  Dy  Dy1  1  0.47944200  0.56051200  0.75000000  1
  Dy  Dy2  1  0.52055800  0.43948800  0.25000000  1
  Dy  Dy3  1  0.97944200  0.93948800  0.75000000  1
  P  P4  1  0.00524700  0.29867000  0.58338500  1
  P  P5  1  0.00524700  0.29867000  0.91661500  1
  P  P6  1  0.06814600  0.51185400  0.75000000  1
  P  P7  1  0.25423100  0.27476100  0.06651200  1
  P  P8  1  0.25423100  0.27476100  0.43348800  1
  P  P9  1  0.24576900  0.77476100  0.56651200  1
  P  P10  1  0.24576900  0.77476100  0.93348800  1
  P  P11  1  0.43185400  0.01185400  0.25000000  1
  P  P12  1  0.49475300  0.79867000  0.41661500  1
  P  P13  1  0.49475300  0.79867000  0.08338500  1
  P  P14  1  0.50524700  0.20133000  0.91661500  1
  P  P15  1  0.50524700  0.20133000  0.58338500  1
  P  P16  1  0.56814600  0.98814600  0.75000000  1
  P  P17  1  0.75423100  0.22523900  0.06651200  1
  P  P18  1  0.75423100  0.22523900  0.43348800  1
  P  P19  1  0.74576900  0.72523900  0.56651200  1
  P  P20  1  0.74576900  0.72523900  0.93348800  1
  P  P21  1  0.93185400  0.48814600  0.25000000  1
  P  P22  1  0.99475300  0.70133000  0.08338500  1
  P  P23  1  0.99475300  0.70133000  0.41661500  1
  O  O24  1  0.99713500  0.84596000  0.13655400  1
  O  O25  1  0.99713500  0.84596000  0.36344600  1
  O  O26  1  0.03194000  0.67186100  0.75000000  1
  O  O27  1  0.02747000  0.56213300  0.15372400  1
  O  O28  1  0.02747000  0.56213300  0.34627600  1
  O  O29  1  0.11747300  0.67970300  0.50401500  1
  O  O30  1  0.11747300  0.67970300  0.99598500  1
  O  O31  1  0.15475000  0.16330700  0.11729000  1
  O  O32  1  0.15475000  0.16330700  0.38271000  1
  O  O33  1  0.16068400  0.34544900  0.53060300  1
  O  O34  1  0.16068400  0.34544900  0.96939700  1
  O  O35  1  0.17315100  0.89754900  0.62499800  1
  O  O36  1  0.17315100  0.89754900  0.87500200  1
  O  O37  1  0.22596400  0.45237500  0.75000000  1
  O  O38  1  0.27403600  0.95237500  0.25000000  1
  O  O39  1  0.32684900  0.39754900  0.12499800  1
  O  O40  1  0.32684900  0.39754900  0.37500200  1
  O  O41  1  0.33931600  0.84544900  0.03060300  1
  O  O42  1  0.33931600  0.84544900  0.46939700  1
  O  O43  1  0.34525000  0.66330700  0.61729000  1
  O  O44  1  0.34525000  0.66330700  0.88271000  1
  O  O45  1  0.38252700  0.17970300  0.00401500  1
  O  O46  1  0.38252700  0.17970300  0.49598500  1
  O  O47  1  0.47253000  0.06213300  0.65372400  1
  O  O48  1  0.47253000  0.06213300  0.84627600  1
  O  O49  1  0.46806000  0.17186100  0.25000000  1
  O  O50  1  0.50286500  0.34596000  0.63655400  1
  O  O51  1  0.50286500  0.34596000  0.86344600  1
  O  O52  1  0.49713500  0.65404000  0.13655400  1
  O  O53  1  0.49713500  0.65404000  0.36344600  1
  O  O54  1  0.53194000  0.82813900  0.75000000  1
  O  O55  1  0.52747000  0.93786700  0.15372400  1
  O  O56  1  0.52747000  0.93786700  0.34627600  1
  O  O57  1  0.61747300  0.82029700  0.50401500  1
  O  O58  1  0.61747300  0.82029700  0.99598500  1
  O  O59  1  0.65475000  0.33669300  0.11729000  1
  O  O60  1  0.65475000  0.33669300  0.38271000  1
  O  O61  1  0.66068400  0.15455100  0.53060300  1
  O  O62  1  0.66068400  0.15455100  0.96939700  1
  O  O63  1  0.67315100  0.60245100  0.62499800  1
  O  O64  1  0.67315100  0.60245100  0.87500200  1
  O  O65  1  0.72596400  0.04762500  0.75000000  1
  O  O66  1  0.77403600  0.54762500  0.25000000  1
  O  O67  1  0.82684900  0.10245100  0.12499800  1
  O  O68  1  0.82684900  0.10245100  0.37500200  1
  O  O69  1  0.83931600  0.65455100  0.03060300  1
  O  O70  1  0.83931600  0.65455100  0.46939700  1
  O  O71  1  0.84525000  0.83669300  0.88271000  1
  O  O72  1  0.84525000  0.83669300  0.61729000  1
  O  O73  1  0.88252700  0.32029700  0.00401500  1
  O  O74  1  0.88252700  0.32029700  0.49598500  1
  O  O75  1  0.97253000  0.43786700  0.65372400  1
  O  O76  1  0.97253000  0.43786700  0.84627600  1
  O  O77  1  0.96806000  0.32813900  0.25000000  1
  O  O78  1  0.00286500  0.15404000  0.63655400  1
  O  O79  1  0.00286500  0.15404000  0.86344600  1
