# generated using pymatgen
data_Ca3WO6
_symmetry_space_group_name_H-M   'P 1'
_cell_length_a   5.87336100
_cell_length_b   5.60329100
_cell_length_c   9.83542972
_cell_angle_alpha   55.74871251
_cell_angle_beta   90.00000000
_cell_angle_gamma   90.00000000
_symmetry_Int_Tables_number   1
_chemical_formula_structural   Ca3WO6
_chemical_formula_sum   'Ca6 W2 O12'
_cell_volume   267.55100253
_cell_formula_units_Z   2
loop_
 _symmetry_equiv_pos_site_id
 _symmetry_equiv_pos_as_xyz
  1  'x, y, z'
loop_
 _atom_site_type_symbol
 _atom_site_label
 _atom_site_symmetry_multiplicity
 _atom_site_fract_x
 _atom_site_fract_y
 _atom_site_fract_z
 _atom_site_occupancy
  Ca  Ca0  1  0.50000000  0.50000000  0.50000000  1
  Ca  Ca1  1  0.94461100  0.72576400  0.25840300  1
  Ca  Ca2  1  0.44461100  0.27423600  0.24159700  1
  Ca  Ca3  1  0.00000000  0.50000000  0.00000000  1
  Ca  Ca4  1  0.55538900  0.72576400  0.75840300  1
  Ca  Ca5  1  0.05538900  0.27423600  0.74159700  1
  W  W6  1  0.50000000  0.00000000  0.00000000  1
  W  W7  1  0.00000000  0.00000000  0.50000000  1
  O  O8  1  0.44154300  0.10783700  0.77503500  1
  O  O9  1  0.22494800  0.75630300  0.07466400  1
  O  O10  1  0.17601700  0.33498100  0.44998700  1
  O  O11  1  0.67601700  0.66501900  0.05001300  1
  O  O12  1  0.72494800  0.24369700  0.42533600  1
  O  O13  1  0.94154300  0.89216300  0.72496500  1
  O  O14  1  0.05845700  0.10783700  0.27503500  1
  O  O15  1  0.27505200  0.75630300  0.57466400  1
  O  O16  1  0.32398300  0.33498100  0.94998700  1
  O  O17  1  0.82398300  0.66501900  0.55001300  1
  O  O18  1  0.77505200  0.24369700  0.92533600  1
  O  O19  1  0.55845700  0.89216300  0.22496500  1
