# generated using pymatgen
data_Hf2N2O
_symmetry_space_group_name_H-M   'P 1'
_cell_length_a   8.71123000
_cell_length_b   8.71967602
_cell_length_c   8.73520363
_cell_angle_alpha   109.43835006
_cell_angle_beta   109.39066017
_cell_angle_gamma   109.44076927
_symmetry_Int_Tables_number   1
_chemical_formula_structural   Hf2N2O
_chemical_formula_sum   'Hf16 N16 O8'
_cell_volume   511.68145944
_cell_formula_units_Z   8
loop_
 _symmetry_equiv_pos_site_id
 _symmetry_equiv_pos_as_xyz
  1  'x, y, z'
loop_
 _atom_site_type_symbol
 _atom_site_label
 _atom_site_symmetry_multiplicity
 _atom_site_fract_x
 _atom_site_fract_y
 _atom_site_fract_z
 _atom_site_occupancy
  Hf  Hf0  1  0.51153000  0.49863600  0.50096300  1
  Hf  Hf1  1  0.21187000  0.75739000  0.46385100  1
  Hf  Hf2  1  0.47045700  0.72081800  0.24692100  1
  Hf  Hf3  1  0.96360900  0.21364500  0.25855700  1
  Hf  Hf4  1  0.29256800  0.24806600  0.03533800  1
  Hf  Hf5  1  0.74754300  0.96507800  0.70674500  1
  Hf  Hf6  1  0.99088600  0.50320300  0.99481000  1
  Hf  Hf7  1  0.24506900  0.53522000  0.78539900  1
  Hf  Hf8  1  0.50057200  0.00828600  0.01068000  1
  Hf  Hf9  1  0.25308900  0.02925300  0.28621400  1
  Hf  Hf10  1  0.00018600  0.99676900  0.48951800  1
  Hf  Hf11  1  0.74370400  0.46516900  0.21542300  1
  Hf  Hf12  1  0.71843900  0.75080600  0.96867800  1
  Hf  Hf13  1  0.02726000  0.77996600  0.74925300  1
  Hf  Hf14  1  0.53932800  0.28213900  0.75013900  1
  Hf  Hf15  1  0.78660100  0.24978200  0.53636900  1
  N  N16  1  0.77000200  0.72963500  0.73701500  1
  N  N17  1  0.53886800  0.51037400  0.27196300  1
  N  N18  1  0.50775100  0.76759000  0.03927500  1
  N  N19  1  0.95750800  0.72585800  0.46931400  1
  N  N20  1  0.24043900  0.76781500  0.22896800  1
  N  N21  1  0.72804200  0.23609600  0.26946800  1
  N  N22  1  0.72696600  0.96292600  0.45732500  1
  N  N23  1  0.76364900  0.22655200  0.77832100  1
  N  N24  1  0.99533700  0.53810100  0.76683500  1
  N  N25  1  0.77319900  0.54664400  0.01188000  1
  N  N26  1  0.48402000  0.22489300  0.95202400  1
  N  N27  1  0.96644700  0.95850800  0.22604600  1
  N  N28  1  0.05260700  0.27543400  0.53615500  1
  N  N29  1  0.25851500  0.98953800  0.03136300  1
  N  N30  1  0.27356500  0.03230600  0.54716600  1
  N  N31  1  0.53438400  0.26509100  0.48805200  1
  O  O32  1  0.27802200  0.75868600  0.72424000  1
  O  O33  1  0.46335800  0.73981400  0.52075100  1
  O  O34  1  0.22637000  0.28023500  0.26469800  1
  O  O35  1  0.01355200  0.46155000  0.23591500  1
  O  O36  1  0.22183900  0.44490000  0.98000400  1
  O  O37  1  0.03335100  0.05254500  0.77655600  1
  O  O38  1  0.45268200  0.48885100  0.72361200  1
  O  O39  1  0.73681300  0.01183100  0.96419600  1
