# generated using pymatgen
data_Na2Ge2O5
_symmetry_space_group_name_H-M   'P 1'
_cell_length_a   24.77624200
_cell_length_b   5.03515600
_cell_length_c   8.53919363
_cell_angle_alpha   89.75727439
_cell_angle_beta   90.00000000
_cell_angle_gamma   90.00000000
_symmetry_Int_Tables_number   1
_chemical_formula_structural   Na2Ge2O5
_chemical_formula_sum   'Na16 Ge16 O40'
_cell_volume   1065.27400380
_cell_formula_units_Z   8
loop_
 _symmetry_equiv_pos_site_id
 _symmetry_equiv_pos_as_xyz
  1  'x, y, z'
loop_
 _atom_site_type_symbol
 _atom_site_label
 _atom_site_symmetry_multiplicity
 _atom_site_fract_x
 _atom_site_fract_y
 _atom_site_fract_z
 _atom_site_occupancy
  Na  Na0  1  0.73906300  0.77583700  0.52402400  1
  Na  Na1  1  0.76093700  0.77583700  0.02402400  1
  Na  Na2  1  0.27949400  0.75923900  0.72361900  1
  Na  Na3  1  0.22050600  0.75923900  0.22361900  1
  Na  Na4  1  0.52612700  0.74276500  0.89905000  1
  Na  Na5  1  0.97387300  0.74276500  0.39905000  1
  Na  Na6  1  0.01349700  0.71958100  0.85221100  1
  Na  Na7  1  0.48650300  0.71958100  0.35221100  1
  Na  Na8  1  0.51349700  0.28041900  0.64778900  1
  Na  Na9  1  0.98650300  0.28041900  0.14778900  1
  Na  Na10  1  0.02612700  0.25723500  0.60095000  1
  Na  Na11  1  0.47387300  0.25723500  0.10095000  1
  Na  Na12  1  0.77949400  0.24076100  0.77638100  1
  Na  Na13  1  0.72050600  0.24076100  0.27638100  1
  Na  Na14  1  0.23906300  0.22416300  0.97597600  1
  Na  Na15  1  0.26093700  0.22416300  0.47597600  1
  Ge  Ge16  1  0.58960300  0.81883900  0.54111200  1
  Ge  Ge17  1  0.91039700  0.81883900  0.04111200  1
  Ge  Ge18  1  0.11042500  0.79673400  0.52042400  1
  Ge  Ge19  1  0.38957500  0.79673400  0.02042400  1
  Ge  Ge20  1  0.86306800  0.70131200  0.69827500  1
  Ge  Ge21  1  0.63693200  0.70131200  0.19827500  1
  Ge  Ge22  1  0.16132200  0.68271400  0.86009800  1
  Ge  Ge23  1  0.33867800  0.68271400  0.36009800  1
  Ge  Ge24  1  0.66132200  0.31728600  0.63990200  1
  Ge  Ge25  1  0.83867800  0.31728600  0.13990200  1
  Ge  Ge26  1  0.36306800  0.29868800  0.80172500  1
  Ge  Ge27  1  0.13693200  0.29868800  0.30172500  1
  Ge  Ge28  1  0.61042500  0.20326600  0.97957600  1
  Ge  Ge29  1  0.88957500  0.20326600  0.47957600  1
  Ge  Ge30  1  0.08960300  0.18116100  0.95888800  1
  Ge  Ge31  1  0.41039700  0.18116100  0.45888800  1
  O  O32  1  0.88783600  0.85012000  0.52063800  1
  O  O33  1  0.61216400  0.85012000  0.02063800  1
  O  O34  1  0.10204900  0.82978600  0.94062200  1
  O  O35  1  0.39795100  0.82978600  0.44062200  1
  O  O36  1  0.79774200  0.77395000  0.75428000  1
  O  O37  1  0.70225800  0.77395000  0.25428000  1
  O  O38  1  0.91681500  0.75621600  0.83491500  1
  O  O39  1  0.52849100  0.74815800  0.62635000  1
  O  O40  1  0.58318500  0.75621600  0.33491500  1
  O  O41  1  0.97150900  0.74815800  0.12635000  1
  O  O42  1  0.22255300  0.75234700  0.94633300  1
  O  O43  1  0.27744700  0.75234700  0.44633300  1
  O  O44  1  0.16553500  0.74312500  0.65388200  1
  O  O45  1  0.33446500  0.74312500  0.15388200  1
  O  O46  1  0.04549900  0.72511600  0.58098100  1
  O  O47  1  0.45450100  0.72511600  0.08098100  1
  O  O48  1  0.65000300  0.66993500  0.61617500  1
  O  O49  1  0.84999700  0.66993500  0.11617500  1
  O  O50  1  0.36604600  0.65039900  0.84192500  1
  O  O51  1  0.13395400  0.65039900  0.34192500  1
  O  O52  1  0.86604600  0.34960100  0.65807500  1
  O  O53  1  0.63395400  0.34960100  0.15807500  1
  O  O54  1  0.15000300  0.33006500  0.88382500  1
  O  O55  1  0.34999700  0.33006500  0.38382500  1
  O  O56  1  0.54549900  0.27488400  0.91901900  1
  O  O57  1  0.95450100  0.27488400  0.41901900  1
  O  O58  1  0.66553500  0.25687500  0.84611800  1
  O  O59  1  0.83446500  0.25687500  0.34611800  1
  O  O60  1  0.72255300  0.24765300  0.55366700  1
  O  O61  1  0.77744700  0.24765300  0.05366700  1
  O  O62  1  0.02849100  0.25184200  0.87365000  1
  O  O63  1  0.41681500  0.24378400  0.66508500  1
  O  O64  1  0.47150900  0.25184200  0.37365000  1
  O  O65  1  0.08318500  0.24378400  0.16508500  1
  O  O66  1  0.29774200  0.22605000  0.74572000  1
  O  O67  1  0.20225800  0.22605000  0.24572000  1
  O  O68  1  0.60204900  0.17021400  0.55937800  1
  O  O69  1  0.89795100  0.17021400  0.05937800  1
  O  O70  1  0.38783600  0.14988000  0.97936200  1
  O  O71  1  0.11216400  0.14988000  0.47936200  1
