# generated using pymatgen
data_La2P4O13
_symmetry_space_group_name_H-M   'P 1'
_cell_length_a   10.16278000
_cell_length_b   9.25916900
_cell_length_c   14.33368520
_cell_angle_alpha   72.86369720
_cell_angle_beta   90.00000000
_cell_angle_gamma   90.00000000
_symmetry_Int_Tables_number   1
_chemical_formula_structural   La2P4O13
_chemical_formula_sum   'La8 P16 O52'
_cell_volume   1288.90675737
_cell_formula_units_Z   4
loop_
 _symmetry_equiv_pos_site_id
 _symmetry_equiv_pos_as_xyz
  1  'x, y, z'
loop_
 _atom_site_type_symbol
 _atom_site_label
 _atom_site_symmetry_multiplicity
 _atom_site_fract_x
 _atom_site_fract_y
 _atom_site_fract_z
 _atom_site_occupancy
  La  La0  1  0.99518800  0.98338100  0.72202800  1
  La  La1  1  0.50481200  0.98338100  0.22202800  1
  La  La2  1  0.99986900  0.54737400  0.73760700  1
  La  La3  1  0.49986900  0.45262600  0.76239300  1
  La  La4  1  0.50013100  0.54737400  0.23760700  1
  La  La5  1  0.00013100  0.45262600  0.26239300  1
  La  La6  1  0.49518800  0.01661900  0.77797200  1
  La  La7  1  0.00481200  0.01661900  0.27797200  1
  P  P8  1  0.76090900  0.84347900  0.94001300  1
  P  P9  1  0.26638300  0.70877100  0.84857200  1
  P  P10  1  0.70982400  0.78225800  0.65476100  1
  P  P11  1  0.73909100  0.84347900  0.44001300  1
  P  P12  1  0.75134600  0.50988300  0.94323900  1
  P  P13  1  0.23361700  0.70877100  0.34857200  1
  P  P14  1  0.79017600  0.78225800  0.15476100  1
  P  P15  1  0.25134600  0.49011700  0.55676100  1
  P  P16  1  0.74865400  0.50988300  0.44323900  1
  P  P17  1  0.20982400  0.21774200  0.84523900  1
  P  P18  1  0.76638300  0.29122900  0.65142800  1
  P  P19  1  0.24865400  0.49011700  0.05676100  1
  P  P20  1  0.26090900  0.15652100  0.55998700  1
  P  P21  1  0.29017600  0.21774200  0.34523900  1
  P  P22  1  0.73361700  0.29122900  0.15142800  1
  P  P23  1  0.23909100  0.15652100  0.05998700  1
  O  O24  1  0.63838200  0.93862800  0.91432800  1
  O  O25  1  0.87164400  0.88055300  0.86712500  1
  O  O26  1  0.32883800  0.84924900  0.86379300  1
  O  O27  1  0.63446700  0.87858700  0.70597100  1
  O  O28  1  0.86161800  0.93862800  0.41432800  1
  O  O29  1  0.68165900  0.86126500  0.53945100  1
  O  O30  1  0.71532900  0.66857100  0.96492300  1
  O  O31  1  0.13974500  0.74504700  0.78525400  1
  O  O32  1  0.86084500  0.78390700  0.67118100  1
  O  O33  1  0.62835600  0.88055300  0.36712500  1
  O  O34  1  0.21091500  0.59951700  0.95194600  1
  O  O35  1  0.17116200  0.84924900  0.36379300  1
  O  O36  1  0.86553300  0.87858700  0.20597100  1
  O  O37  1  0.36500200  0.61680700  0.80957100  1
  O  O38  1  0.87390700  0.52979700  0.88173600  1
  O  O39  1  0.65759400  0.62176900  0.67632000  1
  O  O40  1  0.81834100  0.86126500  0.03945100  1
  O  O41  1  0.78467100  0.66857100  0.46492300  1
  O  O42  1  0.36025500  0.74504700  0.28525400  1
  O  O43  1  0.63915500  0.78390700  0.17118100  1
  O  O44  1  0.12977600  0.54504800  0.59567100  1
  O  O45  1  0.28908500  0.59951700  0.45194600  1
  O  O46  1  0.62977600  0.45495200  0.90432900  1
  O  O47  1  0.15759400  0.37823100  0.82368000  1
  O  O48  1  0.37390700  0.47020300  0.61826400  1
  O  O49  1  0.13499800  0.61680700  0.30957100  1
  O  O50  1  0.86500200  0.38319300  0.69042900  1
  O  O51  1  0.62609300  0.52979700  0.38173600  1
  O  O52  1  0.84240600  0.62176900  0.17632000  1
  O  O53  1  0.37022400  0.54504800  0.09567100  1
  O  O54  1  0.71091500  0.40048300  0.54805400  1
  O  O55  1  0.87022400  0.45495200  0.40432900  1
  O  O56  1  0.36084500  0.21609300  0.82881900  1
  O  O57  1  0.63974500  0.25495300  0.71474600  1
  O  O58  1  0.21532900  0.33142900  0.53507700  1
  O  O59  1  0.18165900  0.13873500  0.96054900  1
  O  O60  1  0.34240600  0.37823100  0.32368000  1
  O  O61  1  0.12609300  0.47020300  0.11826400  1
  O  O62  1  0.63499800  0.38319300  0.19042900  1
  O  O63  1  0.13446700  0.12141300  0.79402900  1
  O  O64  1  0.82883800  0.15075100  0.63620700  1
  O  O65  1  0.78908500  0.40048300  0.04805400  1
  O  O66  1  0.37164400  0.11944700  0.63287500  1
  O  O67  1  0.13915500  0.21609300  0.32881900  1
  O  O68  1  0.86025500  0.25495300  0.21474600  1
  O  O69  1  0.28467100  0.33142900  0.03507700  1
  O  O70  1  0.31834100  0.13873500  0.46054900  1
  O  O71  1  0.13838200  0.06137200  0.58567200  1
  O  O72  1  0.36553300  0.12141300  0.29402900  1
  O  O73  1  0.67116200  0.15075100  0.13620700  1
  O  O74  1  0.12835600  0.11944700  0.13287500  1
  O  O75  1  0.36161800  0.06137200  0.08567200  1
