# generated using pymatgen
data_Gd2P4O13
_symmetry_space_group_name_H-M   'P 1'
_cell_length_a   9.85657000
_cell_length_b   8.88112700
_cell_length_c   14.21061440
_cell_angle_alpha   74.61675509
_cell_angle_beta   90.00000000
_cell_angle_gamma   90.00000000
_symmetry_Int_Tables_number   1
_chemical_formula_structural   Gd2P4O13
_chemical_formula_sum   'Gd8 P16 O52'
_cell_volume   1199.39358271
_cell_formula_units_Z   4
loop_
 _symmetry_equiv_pos_site_id
 _symmetry_equiv_pos_as_xyz
  1  'x, y, z'
loop_
 _atom_site_type_symbol
 _atom_site_label
 _atom_site_symmetry_multiplicity
 _atom_site_fract_x
 _atom_site_fract_y
 _atom_site_fract_z
 _atom_site_occupancy
  Gd  Gd0  1  0.99914200  0.71821000  0.99133000  1
  Gd  Gd1  1  0.99388800  0.78278200  0.51371000  1
  Gd  Gd2  1  0.50085800  0.71821000  0.49133000  1
  Gd  Gd3  1  0.50611200  0.78278200  0.01371000  1
  Gd  Gd4  1  0.49388800  0.21721800  0.98629000  1
  Gd  Gd5  1  0.49914200  0.28179000  0.50867000  1
  Gd  Gd6  1  0.00611200  0.21721800  0.48629000  1
  Gd  Gd7  1  0.00085800  0.28179000  0.00867000  1
  P  P8  1  0.72160500  0.97175000  0.59657000  1
  P  P9  1  0.75430600  0.89027300  0.81265400  1
  P  P10  1  0.26742900  0.76725500  0.68614500  1
  P  P11  1  0.77839500  0.97175000  0.09657000  1
  P  P12  1  0.74569400  0.89027300  0.31265400  1
  P  P13  1  0.27926200  0.54223300  0.89963900  1
  P  P14  1  0.23257100  0.76725500  0.18614500  1
  P  P15  1  0.77926200  0.45776700  0.60036100  1
  P  P16  1  0.22073800  0.54223300  0.39963900  1
  P  P17  1  0.76742900  0.23274500  0.81385500  1
  P  P18  1  0.72073800  0.45776700  0.10036100  1
  P  P19  1  0.25430600  0.10972700  0.68734600  1
  P  P20  1  0.22160500  0.02825000  0.90343000  1
  P  P21  1  0.73257100  0.23274500  0.31385500  1
  P  P22  1  0.24569400  0.10972700  0.18734600  1
  P  P23  1  0.27839500  0.02825000  0.40343000  1
  O  O24  1  0.30510500  0.92994600  0.71064000  1
  O  O25  1  0.15645100  0.87453200  0.90104300  1
  O  O26  1  0.87124100  0.98958900  0.56140300  1
  O  O27  1  0.62616800  0.86510100  0.87186600  1
  O  O28  1  0.72373400  0.86418600  0.70825400  1
  O  O29  1  0.64025600  0.87953400  0.54043600  1
  O  O30  1  0.87166000  0.78471000  0.85419200  1
  O  O31  1  0.19489500  0.92994600  0.21064000  1
  O  O32  1  0.34354900  0.87453200  0.40104300  1
  O  O33  1  0.62875900  0.98958900  0.06140300  1
  O  O34  1  0.36603900  0.63196900  0.95482600  1
  O  O35  1  0.12605400  0.77377000  0.64511000  1
  O  O36  1  0.87383200  0.86510100  0.37186600  1
  O  O37  1  0.77626600  0.86418600  0.20825400  1
  O  O38  1  0.37920700  0.72846700  0.62468700  1
  O  O39  1  0.27012400  0.64252900  0.78786000  1
  O  O40  1  0.85974400  0.87953400  0.04043600  1
  O  O41  1  0.84321100  0.61230100  0.60278700  1
  O  O42  1  0.13015900  0.52041100  0.93813100  1
  O  O43  1  0.62834000  0.78471000  0.35419200  1
  O  O44  1  0.13396100  0.63196900  0.45482600  1
  O  O45  1  0.37394600  0.77377000  0.14511000  1
  O  O46  1  0.12079300  0.72846700  0.12468700  1
  O  O47  1  0.22987600  0.64252900  0.28786000  1
  O  O48  1  0.63015900  0.47958900  0.56186900  1
  O  O49  1  0.34321100  0.38769900  0.89721300  1
  O  O50  1  0.65678900  0.61230100  0.10278700  1
  O  O51  1  0.36984100  0.52041100  0.43813100  1
  O  O52  1  0.77012400  0.35747100  0.71214000  1
  O  O53  1  0.87920700  0.27153300  0.87531300  1
  O  O54  1  0.62605400  0.22623000  0.85489000  1
  O  O55  1  0.86603900  0.36803100  0.54517400  1
  O  O56  1  0.37166000  0.21529000  0.64580800  1
  O  O57  1  0.86984100  0.47958900  0.06186900  1
  O  O58  1  0.15678900  0.38769900  0.39721300  1
  O  O59  1  0.14025600  0.12046600  0.95956400  1
  O  O60  1  0.72987600  0.35747100  0.21214000  1
  O  O61  1  0.62079300  0.27153300  0.37531300  1
  O  O62  1  0.22373400  0.13581400  0.79174600  1
  O  O63  1  0.12616800  0.13489900  0.62813400  1
  O  O64  1  0.87394600  0.22623000  0.35489000  1
  O  O65  1  0.63396100  0.36803100  0.04517400  1
  O  O66  1  0.37124100  0.01041100  0.93859700  1
  O  O67  1  0.65645100  0.12546800  0.59895700  1
  O  O68  1  0.80510500  0.07005400  0.78936000  1
  O  O69  1  0.12834000  0.21529000  0.14580800  1
  O  O70  1  0.35974400  0.12046600  0.45956400  1
  O  O71  1  0.27626600  0.13581400  0.29174600  1
  O  O72  1  0.37383200  0.13489900  0.12813400  1
  O  O73  1  0.12875900  0.01041100  0.43859700  1
  O  O74  1  0.84354900  0.12546800  0.09895700  1
  O  O75  1  0.69489500  0.07005400  0.28936000  1
