# generated using pymatgen
data_Na5LaO4
_symmetry_space_group_name_H-M   'P 1'
_cell_length_a   11.11910100
_cell_length_b   11.13595800
_cell_length_c   11.14442700
_cell_angle_alpha   90.00000000
_cell_angle_beta   90.00000000
_cell_angle_gamma   90.00000000
_symmetry_Int_Tables_number   1
_chemical_formula_structural   Na5LaO4
_chemical_formula_sum   'Na40 La8 O32'
_cell_volume   1379.92347621
_cell_formula_units_Z   8
loop_
 _symmetry_equiv_pos_site_id
 _symmetry_equiv_pos_as_xyz
  1  'x, y, z'
loop_
 _atom_site_type_symbol
 _atom_site_label
 _atom_site_symmetry_multiplicity
 _atom_site_fract_x
 _atom_site_fract_y
 _atom_site_fract_z
 _atom_site_occupancy
  Na  Na0  1  0.82987900  0.12215900  0.10694400  1
  Na  Na1  1  0.67012100  0.62215900  0.10694400  1
  Na  Na2  1  0.14037700  0.39803000  0.10709100  1
  Na  Na3  1  0.35962300  0.89803000  0.10709100  1
  Na  Na4  1  0.39865500  0.15962400  0.11602800  1
  Na  Na5  1  0.10134500  0.65962400  0.11602800  1
  Na  Na6  1  0.60572600  0.35531100  0.13199900  1
  Na  Na7  1  0.89427400  0.85531100  0.13199900  1
  Na  Na8  1  0.87438700  0.37981900  0.14528600  1
  Na  Na9  1  0.62561300  0.87981900  0.14528600  1
  Na  Na10  1  0.12561300  0.87981900  0.35471400  1
  Na  Na11  1  0.37438700  0.37981900  0.35471400  1
  Na  Na12  1  0.10572600  0.35531100  0.36800100  1
  Na  Na13  1  0.39427400  0.85531100  0.36800100  1
  Na  Na14  1  0.60134500  0.65962400  0.38397200  1
  Na  Na15  1  0.89865500  0.15962400  0.38397200  1
  Na  Na16  1  0.64037700  0.39803000  0.39290900  1
  Na  Na17  1  0.85962300  0.89803000  0.39290900  1
  Na  Na18  1  0.17012100  0.62215900  0.39305600  1
  Na  Na19  1  0.32987900  0.12215900  0.39305600  1
  Na  Na20  1  0.82987900  0.37784100  0.60694400  1
  Na  Na21  1  0.67012100  0.87784100  0.60694400  1
  Na  Na22  1  0.14037700  0.10197000  0.60709100  1
  Na  Na23  1  0.35962300  0.60197000  0.60709100  1
  Na  Na24  1  0.39865500  0.34037600  0.61602800  1
  Na  Na25  1  0.10134500  0.84037600  0.61602800  1
  Na  Na26  1  0.60572600  0.14468900  0.63199900  1
  Na  Na27  1  0.89427400  0.64468900  0.63199900  1
  Na  Na28  1  0.62561300  0.62018100  0.64528600  1
  Na  Na29  1  0.87438700  0.12018100  0.64528600  1
  Na  Na30  1  0.12561300  0.62018100  0.85471400  1
  Na  Na31  1  0.37438700  0.12018100  0.85471400  1
  Na  Na32  1  0.10572600  0.14468900  0.86800100  1
  Na  Na33  1  0.39427400  0.64468900  0.86800100  1
  Na  Na34  1  0.60134500  0.84037600  0.88397200  1
  Na  Na35  1  0.89865500  0.34037600  0.88397200  1
  Na  Na36  1  0.64037700  0.10197000  0.89290900  1
  Na  Na37  1  0.85962300  0.60197000  0.89290900  1
  Na  Na38  1  0.17012100  0.87784100  0.89305600  1
  Na  Na39  1  0.32987900  0.37784100  0.89305600  1
  La  La40  1  0.11756200  0.11428600  0.14835900  1
  La  La41  1  0.38243800  0.61428600  0.14835900  1
  La  La42  1  0.88243800  0.61428600  0.35164100  1
  La  La43  1  0.61756200  0.11428600  0.35164100  1
  La  La44  1  0.11756200  0.38571400  0.64835900  1
  La  La45  1  0.38243800  0.88571400  0.64835900  1
  La  La46  1  0.61756200  0.38571400  0.85164100  1
  La  La47  1  0.88243800  0.88571400  0.85164100  1
  O  O48  1  0.24436900  0.03749700  0.00406500  1
  O  O49  1  0.25563100  0.53749700  0.00406500  1
  O  O50  1  0.00123200  0.24025400  0.03641900  1
  O  O51  1  0.49876800  0.74025400  0.03641900  1
  O  O52  1  0.97723600  0.00614300  0.25433800  1
  O  O53  1  0.52276400  0.50614300  0.25433800  1
  O  O54  1  0.23948700  0.24841700  0.24666900  1
  O  O55  1  0.26051300  0.74841700  0.24666900  1
  O  O56  1  0.73948700  0.24841700  0.25333100  1
  O  O57  1  0.76051300  0.74841700  0.25333100  1
  O  O58  1  0.02276400  0.50614300  0.24566200  1
  O  O59  1  0.47723600  0.00614300  0.24566200  1
  O  O60  1  0.50123200  0.24025400  0.46358100  1
  O  O61  1  0.99876800  0.74025400  0.46358100  1
  O  O62  1  0.75563100  0.53749700  0.49593500  1
  O  O63  1  0.74436900  0.03749700  0.49593500  1
  O  O64  1  0.25563100  0.96250300  0.50406500  1
  O  O65  1  0.24436900  0.46250300  0.50406500  1
  O  O66  1  0.00123200  0.25974600  0.53641900  1
  O  O67  1  0.49876800  0.75974600  0.53641900  1
  O  O68  1  0.52276400  0.99385700  0.75433800  1
  O  O69  1  0.97723600  0.49385700  0.75433800  1
  O  O70  1  0.23948700  0.25158300  0.74666900  1
  O  O71  1  0.26051300  0.75158300  0.74666900  1
  O  O72  1  0.73948700  0.25158300  0.75333100  1
  O  O73  1  0.76051300  0.75158300  0.75333100  1
  O  O74  1  0.02276400  0.99385700  0.74566200  1
  O  O75  1  0.47723600  0.49385700  0.74566200  1
  O  O76  1  0.99876800  0.75974600  0.96358100  1
  O  O77  1  0.50123200  0.25974600  0.96358100  1
  O  O78  1  0.75563100  0.96250300  0.99593500  1
  O  O79  1  0.74436900  0.46250300  0.99593500  1
