# generated using pymatgen
data_Gd2P4O13
_symmetry_space_group_name_H-M   'P 1'
_cell_length_a   9.76324200
_cell_length_b   8.97906100
_cell_length_c   14.05179805
_cell_angle_alpha   73.35111143
_cell_angle_beta   90.00000000
_cell_angle_gamma   90.00000000
_symmetry_Int_Tables_number   1
_chemical_formula_structural   Gd2P4O13
_chemical_formula_sum   'Gd8 P16 O52'
_cell_volume   1180.20636054
_cell_formula_units_Z   4
loop_
 _symmetry_equiv_pos_site_id
 _symmetry_equiv_pos_as_xyz
  1  'x, y, z'
loop_
 _atom_site_type_symbol
 _atom_site_label
 _atom_site_symmetry_multiplicity
 _atom_site_fract_x
 _atom_site_fract_y
 _atom_site_fract_z
 _atom_site_occupancy
  Gd  Gd0  1  0.00488400  0.97776100  0.72089100  1
  Gd  Gd1  1  0.49511600  0.97776100  0.22089100  1
  Gd  Gd2  1  0.99911700  0.55096400  0.73636300  1
  Gd  Gd3  1  0.49911700  0.44903600  0.76363700  1
  Gd  Gd4  1  0.50088300  0.55096400  0.23636300  1
  Gd  Gd5  1  0.00088300  0.44903600  0.26363700  1
  Gd  Gd6  1  0.50488400  0.02223900  0.77910900  1
  Gd  Gd7  1  0.99511600  0.02223900  0.27910900  1
  P  P8  1  0.23935000  0.85001800  0.93847000  1
  P  P9  1  0.73287700  0.71169000  0.84714100  1
  P  P10  1  0.29271200  0.78247200  0.65622100  1
  P  P11  1  0.26065000  0.85001800  0.43847000  1
  P  P12  1  0.24843500  0.50690400  0.94152000  1
  P  P13  1  0.76712300  0.71169000  0.34714100  1
  P  P14  1  0.20728800  0.78247200  0.15622100  1
  P  P15  1  0.74843500  0.49309600  0.55848000  1
  P  P16  1  0.25156500  0.50690400  0.44152000  1
  P  P17  1  0.79271200  0.21752800  0.84377900  1
  P  P18  1  0.23287700  0.28831000  0.65285900  1
  P  P19  1  0.75156500  0.49309600  0.05848000  1
  P  P20  1  0.73935000  0.14998200  0.56153000  1
  P  P21  1  0.70728800  0.21752800  0.34377900  1
  P  P22  1  0.26712300  0.28831000  0.15285900  1
  P  P23  1  0.76065000  0.14998200  0.06153000  1
  O  O24  1  0.36496900  0.95027900  0.91405400  1
  O  O25  1  0.12423200  0.88538300  0.86479600  1
  O  O26  1  0.66902800  0.85680100  0.86253200  1
  O  O27  1  0.36874800  0.87769900  0.71223500  1
  O  O28  1  0.13503100  0.95027900  0.41405400  1
  O  O29  1  0.32258600  0.86722600  0.53992300  1
  O  O30  1  0.28963100  0.67045400  0.96292900  1
  O  O31  1  0.86369600  0.74752000  0.78149600  1
  O  O32  1  0.13468900  0.78315900  0.67063700  1
  O  O33  1  0.37576800  0.88538300  0.36479600  1
  O  O34  1  0.79364400  0.60380600  0.95221600  1
  O  O35  1  0.83097200  0.85680100  0.36253200  1
  O  O36  1  0.13125200  0.87769900  0.21223500  1
  O  O37  1  0.63043400  0.61593500  0.80886900  1
  O  O38  1  0.12225200  0.53067800  0.87816100  1
  O  O39  1  0.34629300  0.61801700  0.67598800  1
  O  O40  1  0.17741400  0.86722600  0.03992300  1
  O  O41  1  0.21036900  0.67045400  0.46292900  1
  O  O42  1  0.63630400  0.74752000  0.28149600  1
  O  O43  1  0.36531100  0.78315900  0.17063700  1
  O  O44  1  0.87340300  0.55613000  0.59595400  1
  O  O45  1  0.70635600  0.60380600  0.45221600  1
  O  O46  1  0.37340300  0.44387000  0.90404600  1
  O  O47  1  0.84629300  0.38198300  0.82401200  1
  O  O48  1  0.62225200  0.46932200  0.62183900  1
  O  O49  1  0.86956600  0.61593500  0.30886900  1
  O  O50  1  0.13043400  0.38406500  0.69113100  1
  O  O51  1  0.37774800  0.53067800  0.37816100  1
  O  O52  1  0.15370700  0.61801700  0.17598800  1
  O  O53  1  0.62659700  0.55613000  0.09595400  1
  O  O54  1  0.29364400  0.39619400  0.54778400  1
  O  O55  1  0.12659700  0.44387000  0.40404600  1
  O  O56  1  0.63468900  0.21684100  0.82936300  1
  O  O57  1  0.36369600  0.25248000  0.71850400  1
  O  O58  1  0.78963100  0.32954600  0.53707100  1
  O  O59  1  0.82258600  0.13277400  0.96007700  1
  O  O60  1  0.65370700  0.38198300  0.32401200  1
  O  O61  1  0.87774800  0.46932200  0.12183900  1
  O  O62  1  0.36956600  0.38406500  0.19113100  1
  O  O63  1  0.86874800  0.12230100  0.78776500  1
  O  O64  1  0.16902800  0.14319900  0.63746800  1
  O  O65  1  0.20635600  0.39619400  0.04778400  1
  O  O66  1  0.62423200  0.11461700  0.63520400  1
  O  O67  1  0.86531100  0.21684100  0.32936300  1
  O  O68  1  0.13630400  0.25248000  0.21850400  1
  O  O69  1  0.71036900  0.32954600  0.03707100  1
  O  O70  1  0.67741400  0.13277400  0.46007700  1
  O  O71  1  0.86496900  0.04972100  0.58594600  1
  O  O72  1  0.63125200  0.12230100  0.28776500  1
  O  O73  1  0.33097200  0.14319900  0.13746800  1
  O  O74  1  0.87576800  0.11461700  0.13520400  1
  O  O75  1  0.63503100  0.04972100  0.08594600  1
