# generated using pymatgen
data_Cd(BO2)2
_symmetry_space_group_name_H-M   'P 1'
_cell_length_a   6.46109500
_cell_length_b   11.35028100
_cell_length_c   11.37281800
_cell_angle_alpha   90.00000000
_cell_angle_beta   90.00000000
_cell_angle_gamma   90.00000000
_symmetry_Int_Tables_number   1
_chemical_formula_structural   Cd(BO2)2
_chemical_formula_sum   'Cd12 B24 O48'
_cell_volume   834.02838092
_cell_formula_units_Z   12
loop_
 _symmetry_equiv_pos_site_id
 _symmetry_equiv_pos_as_xyz
  1  'x, y, z'
loop_
 _atom_site_type_symbol
 _atom_site_label
 _atom_site_symmetry_multiplicity
 _atom_site_fract_x
 _atom_site_fract_y
 _atom_site_fract_z
 _atom_site_occupancy
  Cd  Cd0  1  0.65440500  0.03229800  0.23293000  1
  Cd  Cd1  1  0.04875500  0.07264700  0.00333200  1
  Cd  Cd2  1  0.61431700  0.24679800  0.77469100  1
  Cd  Cd3  1  0.11431700  0.25320200  0.27469100  1
  Cd  Cd4  1  0.54875500  0.42735300  0.50333200  1
  Cd  Cd5  1  0.15440500  0.46770200  0.73293000  1
  Cd  Cd6  1  0.84559500  0.53229800  0.23293000  1
  Cd  Cd7  1  0.45124500  0.57264700  0.00333200  1
  Cd  Cd8  1  0.88568300  0.74679800  0.77469100  1
  Cd  Cd9  1  0.38568300  0.75320200  0.27469100  1
  Cd  Cd10  1  0.95124500  0.92735300  0.50333200  1
  Cd  Cd11  1  0.34559500  0.96770200  0.73293000  1
  B  B12  1  0.87517500  0.02577900  0.75134100  1
  B  B13  1  0.52028700  0.03735200  0.98026900  1
  B  B14  1  0.24895500  0.13791200  0.53822500  1
  B  B15  1  0.59627600  0.17651800  0.44321600  1
  B  B16  1  0.11673100  0.21208000  0.74076300  1
  B  B17  1  0.91970200  0.24870100  0.54893400  1
  B  B18  1  0.41970200  0.25129900  0.04893400  1
  B  B19  1  0.61673100  0.28792000  0.24076300  1
  B  B20  1  0.09627600  0.32348200  0.94321600  1
  B  B21  1  0.74895500  0.36208800  0.03822500  1
  B  B22  1  0.02028700  0.46264800  0.48026900  1
  B  B23  1  0.37517500  0.47422100  0.25134100  1
  B  B24  1  0.62482500  0.52577900  0.75134100  1
  B  B25  1  0.97971300  0.53735200  0.98026900  1
  B  B26  1  0.25104500  0.63791200  0.53822500  1
  B  B27  1  0.90372400  0.67651800  0.44321600  1
  B  B28  1  0.38326900  0.71208000  0.74076300  1
  B  B29  1  0.58029800  0.74870100  0.54893400  1
  B  B30  1  0.08029800  0.75129900  0.04893400  1
  B  B31  1  0.88326900  0.78792000  0.24076300  1
  B  B32  1  0.40372400  0.82348200  0.94321600  1
  B  B33  1  0.75104500  0.86208800  0.03822500  1
  B  B34  1  0.47971300  0.96264800  0.48026900  1
  B  B35  1  0.12482500  0.97422100  0.25134100  1
  O  O36  1  0.29748000  0.00387800  0.53001500  1
  O  O37  1  0.63487500  0.04140700  0.45025500  1
  O  O38  1  0.67173700  0.05263300  0.75554000  1
  O  O39  1  0.03747500  0.07479100  0.20306100  1
  O  O40  1  0.02344700  0.10458200  0.80340900  1
  O  O41  1  0.02914000  0.14180200  0.51251200  1
  O  O42  1  0.48839400  0.15451300  0.96708900  1
  O  O43  1  0.28953600  0.17038100  0.66449500  1
  O  O44  1  0.37290800  0.19833400  0.44901800  1
  O  O45  1  0.69699800  0.20794300  0.33025200  1
  O  O46  1  0.46305800  0.22110400  0.17286100  1
  O  O47  1  0.69389000  0.23863600  0.53990600  1
  O  O48  1  0.19389000  0.26136400  0.03990600  1
  O  O49  1  0.96305800  0.27889600  0.67286100  1
  O  O50  1  0.19699800  0.29205700  0.83025200  1
  O  O51  1  0.87290800  0.30166600  0.94901800  1
  O  O52  1  0.78953600  0.32961900  0.16449500  1
  O  O53  1  0.98839400  0.34548700  0.46708900  1
  O  O54  1  0.52914000  0.35819800  0.01251200  1
  O  O55  1  0.52344700  0.39541800  0.30340900  1
  O  O56  1  0.53747500  0.42520900  0.70306100  1
  O  O57  1  0.17173700  0.44736700  0.25554000  1
  O  O58  1  0.13487500  0.45859300  0.95025500  1
  O  O59  1  0.79748000  0.49612200  0.03001500  1
  O  O60  1  0.20252000  0.50387800  0.53001500  1
  O  O61  1  0.86512500  0.54140700  0.45025500  1
  O  O62  1  0.82826300  0.55263300  0.75554000  1
  O  O63  1  0.46252500  0.57479100  0.20306100  1
  O  O64  1  0.47655300  0.60458200  0.80340900  1
  O  O65  1  0.47086000  0.64180200  0.51251200  1
  O  O66  1  0.01160600  0.65451300  0.96708900  1
  O  O67  1  0.21046400  0.67038100  0.66449500  1
  O  O68  1  0.12709200  0.69833400  0.44901800  1
  O  O69  1  0.80300200  0.70794300  0.33025200  1
  O  O70  1  0.03694200  0.72110400  0.17286100  1
  O  O71  1  0.80611000  0.73863600  0.53990600  1
  O  O72  1  0.30611000  0.76136400  0.03990600  1
  O  O73  1  0.53694200  0.77889600  0.67286100  1
  O  O74  1  0.30300200  0.79205700  0.83025200  1
  O  O75  1  0.62709200  0.80166600  0.94901800  1
  O  O76  1  0.71046400  0.82961900  0.16449500  1
  O  O77  1  0.51160600  0.84548700  0.46708900  1
  O  O78  1  0.97086000  0.85819800  0.01251200  1
  O  O79  1  0.97655300  0.89541800  0.30340900  1
  O  O80  1  0.96252500  0.92520900  0.70306100  1
  O  O81  1  0.32826300  0.94736700  0.25554000  1
  O  O82  1  0.36512500  0.95859300  0.95025500  1
  O  O83  1  0.70252000  0.99612200  0.03001500  1
