# generated using pymatgen
data_Na8Gd2O7
_symmetry_space_group_name_H-M   'P 1'
_cell_length_a   11.69995600
_cell_length_b   9.22865100
_cell_length_c   10.92419290
_cell_angle_alpha   71.63949436
_cell_angle_beta   90.00000000
_cell_angle_gamma   90.00000000
_symmetry_Int_Tables_number   1
_chemical_formula_structural   Na8Gd2O7
_chemical_formula_sum   'Na32 Gd8 O28'
_cell_volume   1119.49136672
_cell_formula_units_Z   4
loop_
 _symmetry_equiv_pos_site_id
 _symmetry_equiv_pos_as_xyz
  1  'x, y, z'
loop_
 _atom_site_type_symbol
 _atom_site_label
 _atom_site_symmetry_multiplicity
 _atom_site_fract_x
 _atom_site_fract_y
 _atom_site_fract_z
 _atom_site_occupancy
  Na  Na0  1  0.52311200  0.87099300  0.93376300  1
  Na  Na1  1  0.53187100  0.91385500  0.63865400  1
  Na  Na2  1  0.26503700  0.89293700  0.53432700  1
  Na  Na3  1  0.97688800  0.87099300  0.43376300  1
  Na  Na4  1  0.04901500  0.74836800  0.70105100  1
  Na  Na5  1  0.96812900  0.91385500  0.13865400  1
  Na  Na6  1  0.74215400  0.71629500  0.57193600  1
  Na  Na7  1  0.23496300  0.89293700  0.03432700  1
  Na  Na8  1  0.53220700  0.55760200  0.84463000  1
  Na  Na9  1  0.49639300  0.65810800  0.52154200  1
  Na  Na10  1  0.45098500  0.74836800  0.20105100  1
  Na  Na11  1  0.77169000  0.50147900  0.87258200  1
  Na  Na12  1  0.75784600  0.71629500  0.07193600  1
  Na  Na13  1  0.27169000  0.49852100  0.62741800  1
  Na  Na14  1  0.96779300  0.55760200  0.34463000  1
  Na  Na15  1  0.99639300  0.34189200  0.97845800  1
  Na  Na16  1  0.00360700  0.65810800  0.02154200  1
  Na  Na17  1  0.03220700  0.44239800  0.65537000  1
  Na  Na18  1  0.72831000  0.50147900  0.37258200  1
  Na  Na19  1  0.24215400  0.28370500  0.92806400  1
  Na  Na20  1  0.22831000  0.49852100  0.12741800  1
  Na  Na21  1  0.54901500  0.25163200  0.79894900  1
  Na  Na22  1  0.50360700  0.34189200  0.47845800  1
  Na  Na23  1  0.46779300  0.44239800  0.15537000  1
  Na  Na24  1  0.76503700  0.10706300  0.96567300  1
  Na  Na25  1  0.25784600  0.28370500  0.42806400  1
  Na  Na26  1  0.03187100  0.08614500  0.86134600  1
  Na  Na27  1  0.95098500  0.25163200  0.29894900  1
  Na  Na28  1  0.02311200  0.12900700  0.56623700  1
  Na  Na29  1  0.73496300  0.10706300  0.46567300  1
  Na  Na30  1  0.46812900  0.08614500  0.36134600  1
  Na  Na31  1  0.47688800  0.12900700  0.06623700  1
  Gd  Gd32  1  0.79297800  0.90367700  0.77726900  1
  Gd  Gd33  1  0.70702200  0.90367700  0.27726900  1
  Gd  Gd34  1  0.27971400  0.68277900  0.85271900  1
  Gd  Gd35  1  0.22028600  0.68277900  0.35271900  1
  Gd  Gd36  1  0.77971400  0.31722100  0.64728100  1
  Gd  Gd37  1  0.72028600  0.31722100  0.14728100  1
  Gd  Gd38  1  0.29297800  0.09632300  0.72273100  1
  Gd  Gd39  1  0.20702200  0.09632300  0.22273100  1
  O  O40  1  0.88903800  0.89915700  0.94968600  1
  O  O41  1  0.17942400  0.89462500  0.78130800  1
  O  O42  1  0.88958300  0.89135000  0.61207200  1
  O  O43  1  0.61096200  0.89915700  0.44968600  1
  O  O44  1  0.66825000  0.72845200  0.82657000  1
  O  O45  1  0.32057600  0.89462500  0.28130800  1
  O  O46  1  0.61041700  0.89135000  0.11207200  1
  O  O47  1  0.38531700  0.66793600  0.69438400  1
  O  O48  1  0.83175000  0.72845200  0.32657000  1
  O  O49  1  0.14351500  0.51861600  0.91060200  1
  O  O50  1  0.11674600  0.67551400  0.52195200  1
  O  O51  1  0.11468300  0.66793600  0.19438400  1
  O  O52  1  0.35648500  0.51861600  0.41060200  1
  O  O53  1  0.61674600  0.32448600  0.97804800  1
  O  O54  1  0.38325400  0.67551400  0.02195200  1
  O  O55  1  0.64351500  0.48138400  0.58939800  1
  O  O56  1  0.88531700  0.33206400  0.80561600  1
  O  O57  1  0.88325400  0.32448600  0.47804800  1
  O  O58  1  0.85648500  0.48138400  0.08939800  1
  O  O59  1  0.16825000  0.27154800  0.67343000  1
  O  O60  1  0.61468300  0.33206400  0.30561600  1
  O  O61  1  0.38958300  0.10865000  0.88792800  1
  O  O62  1  0.67942400  0.10537500  0.71869200  1
  O  O63  1  0.33175000  0.27154800  0.17343000  1
  O  O64  1  0.38903800  0.10084300  0.55031400  1
  O  O65  1  0.11041700  0.10865000  0.38792800  1
  O  O66  1  0.82057600  0.10537500  0.21869200  1
  O  O67  1  0.11096200  0.10084300  0.05031400  1
