# generated using pymatgen
data_SrCa2I6
_symmetry_space_group_name_H-M   'P 1'
_cell_length_a   7.29812600
_cell_length_b   8.09377100
_cell_length_c   27.05966300
_cell_angle_alpha   90.00000000
_cell_angle_beta   90.00000000
_cell_angle_gamma   90.00000000
_symmetry_Int_Tables_number   1
_chemical_formula_structural   SrCa2I6
_chemical_formula_sum   'Sr4 Ca8 I24'
_cell_volume   1598.39699073
_cell_formula_units_Z   4
loop_
 _symmetry_equiv_pos_site_id
 _symmetry_equiv_pos_as_xyz
  1  'x, y, z'
loop_
 _atom_site_type_symbol
 _atom_site_label
 _atom_site_symmetry_multiplicity
 _atom_site_fract_x
 _atom_site_fract_y
 _atom_site_fract_z
 _atom_site_occupancy
  Sr  Sr0  1  0.00000000  0.25000000  0.37893000  1
  Sr  Sr1  1  0.00000000  0.75000000  0.62107000  1
  Sr  Sr2  1  0.50000000  0.25000000  0.87893000  1
  Sr  Sr3  1  0.50000000  0.75000000  0.12107000  1
  Ca  Ca4  1  0.00000000  0.25000000  0.04571700  1
  Ca  Ca5  1  0.00000000  0.75000000  0.28673700  1
  Ca  Ca6  1  0.00000000  0.25000000  0.71326300  1
  Ca  Ca7  1  0.00000000  0.75000000  0.95428300  1
  Ca  Ca8  1  0.50000000  0.25000000  0.21326300  1
  Ca  Ca9  1  0.50000000  0.75000000  0.78673700  1
  Ca  Ca10  1  0.50000000  0.25000000  0.54571700  1
  Ca  Ca11  1  0.50000000  0.75000000  0.45428300  1
  I  I12  1  0.23716400  0.57242500  0.03657700  1
  I  I13  1  0.23716400  0.07242500  0.96342300  1
  I  I14  1  0.24959900  0.56793400  0.20730200  1
  I  I15  1  0.24959900  0.06793400  0.79269800  1
  I  I16  1  0.24166200  0.59195200  0.37194600  1
  I  I17  1  0.24166200  0.09195200  0.62805400  1
  I  I18  1  0.25833800  0.09195200  0.12805400  1
  I  I19  1  0.25833800  0.59195200  0.87194600  1
  I  I20  1  0.25040100  0.06793400  0.29269800  1
  I  I21  1  0.25040100  0.56793400  0.70730200  1
  I  I22  1  0.26283600  0.07242500  0.46342300  1
  I  I23  1  0.26283600  0.57242500  0.53657700  1
  I  I24  1  0.73716400  0.92757500  0.53657700  1
  I  I25  1  0.73716400  0.42757500  0.46342300  1
  I  I26  1  0.74959900  0.43206600  0.29269800  1
  I  I27  1  0.74959900  0.93206600  0.70730200  1
  I  I28  1  0.74166200  0.90804800  0.87194600  1
  I  I29  1  0.74166200  0.40804800  0.12805400  1
  I  I30  1  0.75833800  0.90804800  0.37194600  1
  I  I31  1  0.75833800  0.40804800  0.62805400  1
  I  I32  1  0.75040100  0.93206600  0.20730200  1
  I  I33  1  0.75040100  0.43206600  0.79269800  1
  I  I34  1  0.76283600  0.92757500  0.03657700  1
  I  I35  1  0.76283600  0.42757500  0.96342300  1
