# generated using pymatgen
data_Lu4Al2O9
_symmetry_space_group_name_H-M   'P 1'
_cell_length_a   10.30681300
_cell_length_b   7.21616100
_cell_length_c   11.04983435
_cell_angle_alpha   71.93243385
_cell_angle_beta   90.00000000
_cell_angle_gamma   90.00000000
_symmetry_Int_Tables_number   1
_chemical_formula_structural   Lu4Al2O9
_chemical_formula_sum   'Lu16 Al8 O36'
_cell_volume   781.31464478
_cell_formula_units_Z   4
loop_
 _symmetry_equiv_pos_site_id
 _symmetry_equiv_pos_as_xyz
  1  'x, y, z'
loop_
 _atom_site_type_symbol
 _atom_site_label
 _atom_site_symmetry_multiplicity
 _atom_site_fract_x
 _atom_site_fract_y
 _atom_site_fract_z
 _atom_site_occupancy
  Lu  Lu0  1  0.62896500  0.90738200  0.94040600  1
  Lu  Lu1  1  0.87103500  0.90738200  0.44040600  1
  Lu  Lu2  1  0.40394200  0.77520400  0.69490500  1
  Lu  Lu3  1  0.88783000  0.73345000  0.78478900  1
  Lu  Lu4  1  0.09605800  0.77520400  0.19490500  1
  Lu  Lu5  1  0.11681700  0.58424400  0.58980500  1
  Lu  Lu6  1  0.61217000  0.73345000  0.28478900  1
  Lu  Lu7  1  0.61681700  0.41575600  0.91019500  1
  Lu  Lu8  1  0.38318300  0.58424400  0.08980500  1
  Lu  Lu9  1  0.38783000  0.26655000  0.71521100  1
  Lu  Lu10  1  0.88318300  0.41575600  0.41019500  1
  Lu  Lu11  1  0.90394200  0.22479600  0.80509500  1
  Lu  Lu12  1  0.11217000  0.26655000  0.21521100  1
  Lu  Lu13  1  0.59605800  0.22479600  0.30509500  1
  Lu  Lu14  1  0.12896500  0.09261800  0.55959400  1
  Lu  Lu15  1  0.37103500  0.09261800  0.05959400  1
  Al  Al16  1  0.17590800  0.95023200  0.87560800  1
  Al  Al17  1  0.32409200  0.95023200  0.37560800  1
  Al  Al18  1  0.68157500  0.58820700  0.61273200  1
  Al  Al19  1  0.18157500  0.41179300  0.88726800  1
  Al  Al20  1  0.81842500  0.58820700  0.11273200  1
  Al  Al21  1  0.31842500  0.41179300  0.38726800  1
  Al  Al22  1  0.67590800  0.04976800  0.62439200  1
  Al  Al23  1  0.82409200  0.04976800  0.12439200  1
  O  O24  1  0.00825900  0.93389500  0.85609400  1
  O  O25  1  0.25818900  0.97635900  0.72979200  1
  O  O26  1  0.00089000  0.83259500  0.60888100  1
  O  O27  1  0.73062800  0.82239600  0.61406800  1
  O  O28  1  0.49329700  0.68920900  0.89279600  1
  O  O29  1  0.49174100  0.93389500  0.35609400  1
  O  O30  1  0.24181100  0.97635900  0.22979200  1
  O  O31  1  0.76015500  0.61698000  0.95769800  1
  O  O32  1  0.26425200  0.81186200  0.52419600  1
  O  O33  1  0.27220300  0.53356000  0.75157800  1
  O  O34  1  0.49911000  0.83259500  0.10888100  1
  O  O35  1  0.76937200  0.82239600  0.11406800  1
  O  O36  1  0.02282600  0.47385600  0.83130700  1
  O  O37  1  0.00670300  0.68920900  0.39279600  1
  O  O38  1  0.52282600  0.52614400  0.66869300  1
  O  O39  1  0.73984500  0.61698000  0.45769800  1
  O  O40  1  0.77220300  0.46644000  0.74842200  1
  O  O41  1  0.23574800  0.81186200  0.02419600  1
  O  O42  1  0.76425200  0.18813800  0.97580400  1
  O  O43  1  0.22779700  0.53356000  0.25157800  1
  O  O44  1  0.26015500  0.38302000  0.54230200  1
  O  O45  1  0.47717400  0.47385600  0.33130700  1
  O  O46  1  0.99329700  0.31079100  0.60720400  1
  O  O47  1  0.97717400  0.52614400  0.16869300  1
  O  O48  1  0.23062800  0.17760400  0.88593200  1
  O  O49  1  0.50089000  0.16740500  0.89111900  1
  O  O50  1  0.72779700  0.46644000  0.24842200  1
  O  O51  1  0.73574800  0.18813800  0.47580400  1
  O  O52  1  0.23984500  0.38302000  0.04230200  1
  O  O53  1  0.75818900  0.02364100  0.77020800  1
  O  O54  1  0.50825900  0.06610500  0.64390600  1
  O  O55  1  0.50670300  0.31079100  0.10720400  1
  O  O56  1  0.26937200  0.17760400  0.38593200  1
  O  O57  1  0.99911000  0.16740500  0.39111900  1
  O  O58  1  0.74181100  0.02364100  0.27020800  1
  O  O59  1  0.99174100  0.06610500  0.14390600  1
