# generated using pymatgen
data_Ho2Sb2O7
_symmetry_space_group_name_H-M   'P 1'
_cell_length_a   7.52884026
_cell_length_b   7.52884026
_cell_length_c   18.52612000
_cell_angle_alpha   90.00000000
_cell_angle_beta   90.00000000
_cell_angle_gamma   120.00000228
_symmetry_Int_Tables_number   1
_chemical_formula_structural   Ho2Sb2O7
_chemical_formula_sum   'Ho12 Sb12 O42'
_cell_volume   909.43415351
_cell_formula_units_Z   6
loop_
 _symmetry_equiv_pos_site_id
 _symmetry_equiv_pos_as_xyz
  1  'x, y, z'
loop_
 _atom_site_type_symbol
 _atom_site_label
 _atom_site_symmetry_multiplicity
 _atom_site_fract_x
 _atom_site_fract_y
 _atom_site_fract_z
 _atom_site_occupancy
  Ho  Ho0  1  0.00000000  0.82581400  0.66666700  1
  Ho  Ho1  1  0.00000000  0.83640300  0.16666700  1
  Ho  Ho2  1  0.18205700  0.68362800  0.01127900  1
  Ho  Ho3  1  0.17418600  0.17418600  0.00000000  1
  Ho  Ho4  1  0.50157200  0.81794300  0.67794500  1
  Ho  Ho5  1  0.16359700  0.16359700  0.50000000  1
  Ho  Ho6  1  0.31637200  0.49842800  0.34461200  1
  Ho  Ho7  1  0.49842800  0.31637200  0.65538800  1
  Ho  Ho8  1  0.68362800  0.18205700  0.98872100  1
  Ho  Ho9  1  0.81794300  0.50157200  0.32205500  1
  Ho  Ho10  1  0.83640300  0.00000000  0.83333300  1
  Ho  Ho11  1  0.82581400  0.00000000  0.33333300  1
  Sb  Sb12  1  0.00000000  0.32856200  0.16666700  1
  Sb  Sb13  1  0.00000000  0.30051100  0.66666700  1
  Sb  Sb14  1  0.16746800  0.66916400  0.50124800  1
  Sb  Sb15  1  0.50169600  0.83253200  0.16791500  1
  Sb  Sb16  1  0.33083600  0.49830400  0.83458200  1
  Sb  Sb17  1  0.30051100  0.00000000  0.33333300  1
  Sb  Sb18  1  0.67143800  0.67143800  0.50000000  1
  Sb  Sb19  1  0.32856200  0.00000000  0.83333300  1
  Sb  Sb20  1  0.69948900  0.69948900  0.00000000  1
  Sb  Sb21  1  0.49830400  0.33083600  0.16541800  1
  Sb  Sb22  1  0.66916400  0.16746800  0.49875200  1
  Sb  Sb23  1  0.83253200  0.50169600  0.83208500  1
  O  O24  1  0.01654000  0.85167200  0.28449700  1
  O  O25  1  0.99136500  0.80030000  0.80302700  1
  O  O26  1  0.10600100  0.65640900  0.39426700  1
  O  O27  1  0.04451700  0.42636400  0.80744200  1
  O  O28  1  0.32932300  0.99360800  0.95674700  1
  O  O29  1  0.23319300  0.69251400  0.60634100  1
  O  O30  1  0.00639200  0.33571500  0.29008000  1
  O  O31  1  0.20122500  0.67648500  0.13914400  1
  O  O32  1  0.38184700  0.95548300  0.47410900  1
  O  O33  1  0.45932100  0.76680700  0.27300800  1
  O  O34  1  0.47526000  0.79877500  0.80581000  1
  O  O35  1  0.34359100  0.44959200  0.72760000  1
  O  O36  1  0.14832800  0.16486800  0.61783000  1
  O  O37  1  0.32351500  0.52474000  0.47247700  1
  O  O38  1  0.19970000  0.19106500  0.13636000  1
  O  O39  1  0.16486800  0.14832800  0.38217000  1
  O  O40  1  0.30748600  0.54067900  0.93967400  1
  O  O41  1  0.19106500  0.19970000  0.86364000  1
  O  O42  1  0.55040800  0.89399900  0.06093300  1
  O  O43  1  0.57363600  0.61815300  0.14077600  1
  O  O44  1  0.80893500  0.00863500  0.46969400  1
  O  O45  1  0.66428500  0.67067700  0.62341400  1
  O  O46  1  0.44959200  0.34359100  0.27240000  1
  O  O47  1  0.61815300  0.57363600  0.85922400  1
  O  O48  1  0.33571500  0.00639200  0.70992000  1
  O  O49  1  0.83513200  0.98346000  0.95116300  1
  O  O50  1  0.54067900  0.30748600  0.06032600  1
  O  O51  1  0.67067700  0.66428500  0.37658600  1
  O  O52  1  0.52474000  0.32351500  0.52752300  1
  O  O53  1  0.42636400  0.04451700  0.19255800  1
  O  O54  1  0.69251400  0.23319300  0.39365900  1
  O  O55  1  0.67648500  0.20122500  0.86085600  1
  O  O56  1  0.89399900  0.55040800  0.93906700  1
  O  O57  1  0.98346000  0.83513200  0.04883700  1
  O  O58  1  0.79877500  0.47526000  0.19419000  1
  O  O59  1  0.00863500  0.80893500  0.53030600  1
  O  O60  1  0.76680700  0.45932100  0.72699200  1
  O  O61  1  0.65640900  0.10600100  0.60573300  1
  O  O62  1  0.95548300  0.38184700  0.52589100  1
  O  O63  1  0.80030000  0.99136500  0.19697300  1
  O  O64  1  0.99360800  0.32932300  0.04325300  1
  O  O65  1  0.85167200  0.01654000  0.71550300  1
