# generated using pymatgen
data_LaAlO3
_symmetry_space_group_name_H-M   'P 1'
_cell_length_a   6.81910600
_cell_length_b   7.90093635
_cell_length_c   8.05499323
_cell_angle_alpha   102.70463513
_cell_angle_beta   92.71731022
_cell_angle_gamma   93.24450081
_symmetry_Int_Tables_number   1
_chemical_formula_structural   LaAlO3
_chemical_formula_sum   'La6 Al6 O18'
_cell_volume   421.87864927
_cell_formula_units_Z   6
loop_
 _symmetry_equiv_pos_site_id
 _symmetry_equiv_pos_as_xyz
  1  'x, y, z'
loop_
 _atom_site_type_symbol
 _atom_site_label
 _atom_site_symmetry_multiplicity
 _atom_site_fract_x
 _atom_site_fract_y
 _atom_site_fract_z
 _atom_site_occupancy
  La  La0  1  0.77719700  0.90028000  0.10898800  1
  La  La1  1  0.58442000  0.74707200  0.52775700  1
  La  La2  1  0.12115600  0.57685100  0.80988900  1
  La  La3  1  0.87884400  0.42314900  0.19011100  1
  La  La4  1  0.41558000  0.25292800  0.47224300  1
  La  La5  1  0.22280300  0.09972000  0.89101200  1
  Al  Al6  1  0.08916800  0.77616300  0.46680600  1
  Al  Al7  1  0.31064000  0.89507700  0.20065300  1
  Al  Al8  1  0.35741200  0.52328800  0.20536100  1
  Al  Al9  1  0.64258800  0.47671200  0.79463900  1
  Al  Al10  1  0.91083200  0.22383700  0.53319400  1
  Al  Al11  1  0.68936000  0.10492300  0.79934700  1
  O  O12  1  0.55498500  0.91147500  0.81743200  1
  O  O13  1  0.27498900  0.92850900  0.42493200  1
  O  O14  1  0.11585900  0.85371900  0.04548900  1
  O  O15  1  0.06617400  0.81605900  0.68657700  1
  O  O16  1  0.86107200  0.74512500  0.34741500  1
  O  O17  1  0.46623400  0.72216200  0.17413300  1
  O  O18  1  0.44651800  0.55136900  0.69128700  1
  O  O19  1  0.19628400  0.57297200  0.38000800  1
  O  O20  1  0.80259400  0.58338100  0.96303500  1
  O  O21  1  0.80371600  0.42702800  0.61999200  1
  O  O22  1  0.19740600  0.41661900  0.03696500  1
  O  O23  1  0.55348200  0.44863100  0.30871300  1
  O  O24  1  0.53376600  0.27783800  0.82586700  1
  O  O25  1  0.13892800  0.25487500  0.65258500  1
  O  O26  1  0.93382600  0.18394100  0.31342300  1
  O  O27  1  0.72501100  0.07149100  0.57506800  1
  O  O28  1  0.88414100  0.14628100  0.95451100  1
  O  O29  1  0.44501500  0.08852500  0.18256800  1
