# generated using pymatgen
data_Na4Bi2O5
_symmetry_space_group_name_H-M   'P 1'
_cell_length_a   6.18566300
_cell_length_b   8.74394000
_cell_length_c   16.20462241
_cell_angle_alpha   62.67654497
_cell_angle_beta   90.00000000
_cell_angle_gamma   90.00000000
_symmetry_Int_Tables_number   1
_chemical_formula_structural   Na4Bi2O5
_chemical_formula_sum   'Na16 Bi8 O20'
_cell_volume   778.67326376
_cell_formula_units_Z   4
loop_
 _symmetry_equiv_pos_site_id
 _symmetry_equiv_pos_as_xyz
  1  'x, y, z'
loop_
 _atom_site_type_symbol
 _atom_site_label
 _atom_site_symmetry_multiplicity
 _atom_site_fract_x
 _atom_site_fract_y
 _atom_site_fract_z
 _atom_site_occupancy
  Na  Na0  1  0.96605100  0.22850000  0.96843500  1
  Na  Na1  1  0.54117800  0.69056800  0.94985400  1
  Na  Na2  1  0.11802800  0.60602700  0.90015600  1
  Na  Na3  1  0.34086000  0.07292400  0.92137900  1
  Na  Na4  1  0.61802800  0.39397300  0.59984400  1
  Na  Na5  1  0.84086000  0.92707600  0.57862100  1
  Na  Na6  1  0.46605100  0.77150000  0.53156500  1
  Na  Na7  1  0.95882200  0.69056800  0.44985400  1
  Na  Na8  1  0.04117800  0.30943200  0.55014600  1
  Na  Na9  1  0.53394900  0.22850000  0.46843500  1
  Na  Na10  1  0.15914000  0.07292400  0.42137900  1
  Na  Na11  1  0.38197200  0.60602700  0.40015600  1
  Na  Na12  1  0.65914000  0.92707600  0.07862100  1
  Na  Na13  1  0.88197200  0.39397300  0.09984400  1
  Na  Na14  1  0.45882200  0.30943200  0.05014600  1
  Na  Na15  1  0.03394900  0.77150000  0.03156500  1
  Bi  Bi16  1  0.57846600  0.46352600  0.83179300  1
  Bi  Bi17  1  0.07846600  0.53647400  0.66820700  1
  Bi  Bi18  1  0.83694900  0.03858000  0.80654300  1
  Bi  Bi19  1  0.33694900  0.96142000  0.69345700  1
  Bi  Bi20  1  0.66305100  0.03858000  0.30654300  1
  Bi  Bi21  1  0.16305100  0.96142000  0.19345700  1
  Bi  Bi22  1  0.92153400  0.46352600  0.33179300  1
  Bi  Bi23  1  0.42153400  0.53647400  0.16820700  1
  O  O24  1  0.75544500  0.46897300  0.94104400  1
  O  O25  1  0.30047700  0.35028800  0.90919500  1
  O  O26  1  0.71813600  0.10635800  0.90824300  1
  O  O27  1  0.12011000  0.91025500  0.87461000  1
  O  O28  1  0.46059100  0.72161200  0.79880600  1
  O  O29  1  0.80047700  0.64971200  0.59080500  1
  O  O30  1  0.96059100  0.27838800  0.70119400  1
  O  O31  1  0.62011000  0.08974500  0.62539000  1
  O  O32  1  0.25544500  0.53102700  0.55895600  1
  O  O33  1  0.21813600  0.89364200  0.59175700  1
  O  O34  1  0.78186400  0.10635800  0.40824300  1
  O  O35  1  0.74455500  0.46897300  0.44104400  1
  O  O36  1  0.37989000  0.91025500  0.37461000  1
  O  O37  1  0.03940900  0.72161200  0.29880600  1
  O  O38  1  0.19952300  0.35028800  0.40919500  1
  O  O39  1  0.53940900  0.27838800  0.20119400  1
  O  O40  1  0.87989000  0.08974500  0.12539000  1
  O  O41  1  0.28186400  0.89364200  0.09175700  1
  O  O42  1  0.69952300  0.64971200  0.09080500  1
  O  O43  1  0.24455500  0.53102700  0.05895600  1
