# generated using pymatgen
data_Mn2OF3
_symmetry_space_group_name_H-M   'P 1'
_cell_length_a   4.79438300
_cell_length_b   5.73909009
_cell_length_c   13.82622214
_cell_angle_alpha   79.07426613
_cell_angle_beta   89.10726887
_cell_angle_gamma   89.34755905
_symmetry_Int_Tables_number   1
_chemical_formula_structural   Mn2OF3
_chemical_formula_sum   'Mn10 O5 F15'
_cell_volume   373.47898663
_cell_formula_units_Z   5
loop_
 _symmetry_equiv_pos_site_id
 _symmetry_equiv_pos_as_xyz
  1  'x, y, z'
loop_
 _atom_site_type_symbol
 _atom_site_label
 _atom_site_symmetry_multiplicity
 _atom_site_fract_x
 _atom_site_fract_y
 _atom_site_fract_z
 _atom_site_occupancy
  Mn  Mn0  1  0.50298400  0.49879300  0.99929900  1
  Mn  Mn1  1  0.48597200  0.69568600  0.40175200  1
  Mn  Mn2  1  0.54184300  0.28883500  0.59080900  1
  Mn  Mn3  1  0.46621700  0.09890000  0.21422900  1
  Mn  Mn4  1  0.52047700  0.90776700  0.79062200  1
  Mn  Mn5  1  0.96574200  0.60138800  0.18589500  1
  Mn  Mn6  1  0.99794600  0.20017500  0.40038200  1
  Mn  Mn7  1  0.03827800  0.39833000  0.81188100  1
  Mn  Mn8  1  0.98544100  0.80451400  0.60345600  1
  Mn  Mn9  1  0.99990500  0.00138000  0.00003800  1
  O  O10  1  0.79949400  0.70068500  0.04926600  1
  O  O11  1  0.69808300  0.39160400  0.45601600  1
  O  O12  1  0.70865500  0.97764800  0.65686800  1
  O  O13  1  0.28643600  0.00539700  0.35082400  1
  O  O14  1  0.20487300  0.29891300  0.94893700  1
  F  F15  1  0.81160000  0.07874700  0.86388900  1
  F  F16  1  0.81132000  0.27179100  0.26204500  1
  F  F17  1  0.81510200  0.48618500  0.66850300  1
  F  F18  1  0.79669800  0.88244800  0.46443300  1
  F  F19  1  0.70112500  0.18296400  0.06966700  1
  F  F20  1  0.68630400  0.77465100  0.26507300  1
  F  F21  1  0.68828800  0.57257300  0.86017200  1
  F  F22  1  0.31490400  0.43088000  0.13819200  1
  F  F23  1  0.30085700  0.81826800  0.93019000  1
  F  F24  1  0.32129000  0.23299500  0.72809200  1
  F  F25  1  0.29274200  0.61570500  0.54520700  1
  F  F26  1  0.18087600  0.11599700  0.53964400  1
  F  F27  1  0.19107200  0.51476200  0.33125500  1
  F  F28  1  0.19097400  0.92286700  0.13478400  1
  F  F29  1  0.19450300  0.72915400  0.73857900  1
