# generated using pymatgen
data_LiV2P4(HO8)2
_symmetry_space_group_name_H-M   'P 1'
_cell_length_a   9.28607478
_cell_length_b   9.29850629
_cell_length_c   7.76431800
_cell_angle_alpha   78.09188392
_cell_angle_beta   78.07877657
_cell_angle_gamma   116.56680302
_symmetry_Int_Tables_number   1
_chemical_formula_structural   LiV2P4(HO8)2
_chemical_formula_sum   'Li2 V4 P8 H4 O32'
_cell_volume   551.46183243
_cell_formula_units_Z   2
loop_
 _symmetry_equiv_pos_site_id
 _symmetry_equiv_pos_as_xyz
  1  'x, y, z'
loop_
 _atom_site_type_symbol
 _atom_site_label
 _atom_site_symmetry_multiplicity
 _atom_site_fract_x
 _atom_site_fract_y
 _atom_site_fract_z
 _atom_site_occupancy
  Li  Li0  1  0.46198428  0.09212470  0.35728545  1
  Li  Li1  1  0.83924908  0.70968952  0.85275271  1
  V  V2  1  0.24369764  0.25449176  0.49973475  1
  V  V3  1  0.49875255  0.99926635  0.99008132  1
  V  V4  1  0.00314732  0.49502488  0.00333531  1
  V  V5  1  0.74940019  0.75123565  0.48792100  1
  P  P6  1  0.25157025  0.60754590  0.26885852  1
  P  P7  1  0.75615887  0.10603340  0.26524228  1
  P  P8  1  0.64610398  0.48978280  0.23166984  1
  P  P9  1  0.14547317  0.00217678  0.22904971  1
  P  P10  1  0.35454681  0.50218278  0.76685360  1
  P  P11  1  0.85423006  0.00793334  0.76333201  1
  P  P12  1  0.75059567  0.39758746  0.73282758  1
  P  P13  1  0.23767194  0.89726057  0.73292615  1
  H  H14  1  0.75667856  0.26479266  0.51042408  1
  H  H15  1  0.24608446  0.74069557  0.49254661  1
  H  H16  1  0.48264629  0.49211159  0.98902059  1
  H  H17  1  0.00022512  0.00035035  0.99972973  1
  O  O18  1  0.11346047  0.06249054  0.05205188  1
  O  O19  1  0.17653760  0.12758420  0.34007642  1
  O  O20  1  0.00335940  0.18362360  0.62995186  1
  O  O21  1  0.21860955  0.05370301  0.68126283  1
  O  O22  1  0.62490443  0.06907731  0.15817363  1
  O  O23  1  0.12476605  0.57140160  0.15933813  1
  O  O24  1  0.28126842  0.45841858  0.31740502  1
  O  O25  1  0.48634615  0.31559145  0.36207937  1
  O  O26  1  0.67990048  0.13187009  0.43956616  1
  O  O27  1  0.18055604  0.63890118  0.44377313  1
  O  O28  1  0.31811515  0.37691712  0.65615928  1
  O  O29  1  0.20631174  0.53305680  0.81830766  1
  O  O30  1  0.68911453  0.02164834  0.82429111  1
  O  O31  1  0.62371720  0.57011882  0.05658708  1
  O  O32  1  0.93265296  0.25495832  0.13107684  1
  O  O33  1  0.42450046  0.77161484  0.13195459  1
  O  O34  1  0.57455918  0.23628437  0.86385152  1
  O  O35  1  0.06317061  0.73797067  0.86326585  1
  O  O36  1  0.38257074  0.42566732  0.94298785  1
  O  O37  1  0.80191078  0.46890100  0.18421175  1
  O  O38  1  0.31033055  0.98901207  0.18310785  1
  O  O39  1  0.67854083  0.61359156  0.35241787  1
  O  O40  1  0.81943745  0.37101666  0.55315236  1
  O  O41  1  0.31926819  0.87442208  0.55852882  1
  O  O42  1  0.52015458  0.67457559  0.63373940  1
  O  O43  1  0.73742041  0.56117128  0.68404046  1
  O  O44  1  0.87494442  0.42772677  0.84434244  1
  O  O45  1  0.36147061  0.92963695  0.85356483  1
  O  O46  1  0.77097612  0.94064852  0.32495956  1
  O  O47  1  0.98538488  0.82602991  0.36674943  1
  O  O48  1  0.81809273  0.87504858  0.65989384  1
  O  O49  1  0.88072007  0.93207277  0.93939393  1
