# generated using pymatgen
data_La2WO6
_symmetry_space_group_name_H-M   'P 1'
_cell_length_a   5.80745300
_cell_length_b   11.21715200
_cell_length_c   16.78811900
_cell_angle_alpha   90.00000000
_cell_angle_beta   90.00000000
_cell_angle_gamma   90.00000000
_symmetry_Int_Tables_number   1
_chemical_formula_structural   La2WO6
_chemical_formula_sum   'La16 W8 O48'
_cell_volume   1093.62983000
_cell_formula_units_Z   8
loop_
 _symmetry_equiv_pos_site_id
 _symmetry_equiv_pos_as_xyz
  1  'x, y, z'
loop_
 _atom_site_type_symbol
 _atom_site_label
 _atom_site_symmetry_multiplicity
 _atom_site_fract_x
 _atom_site_fract_y
 _atom_site_fract_z
 _atom_site_occupancy
  La  La0  1  0.89970100  0.63834700  0.06207600  1
  La  La1  1  0.39970100  0.86165300  0.06207600  1
  La  La2  1  0.93661600  0.86073200  0.23328600  1
  La  La3  1  0.43661600  0.63926800  0.23328600  1
  La  La4  1  0.93661600  0.36073200  0.26671400  1
  La  La5  1  0.43661600  0.13926800  0.26671400  1
  La  La6  1  0.39970100  0.36165300  0.43792400  1
  La  La7  1  0.89970100  0.13834700  0.43792400  1
  La  La8  1  0.10029900  0.86165300  0.56207600  1
  La  La9  1  0.60029900  0.63834700  0.56207600  1
  La  La10  1  0.56338400  0.86073200  0.73328600  1
  La  La11  1  0.06338400  0.63926800  0.73328600  1
  La  La12  1  0.56338400  0.36073200  0.76671400  1
  La  La13  1  0.06338400  0.13926800  0.76671400  1
  La  La14  1  0.10029900  0.36165300  0.93792400  1
  La  La15  1  0.60029900  0.13834700  0.93792400  1
  W  W16  1  0.39227200  0.37344300  0.12044600  1
  W  W17  1  0.89227200  0.12655700  0.12044600  1
  W  W18  1  0.39227200  0.87344300  0.37955400  1
  W  W19  1  0.89227200  0.62655700  0.37955400  1
  W  W20  1  0.10772800  0.37344300  0.62044600  1
  W  W21  1  0.60772800  0.12655700  0.62044600  1
  W  W22  1  0.10772800  0.87344300  0.87955400  1
  W  W23  1  0.60772800  0.62655700  0.87955400  1
  O  O24  1  0.91988000  0.21150500  0.02355700  1
  O  O25  1  0.41988000  0.28849500  0.02355700  1
  O  O26  1  0.13028600  0.45311800  0.07767400  1
  O  O27  1  0.63028600  0.04688200  0.07767400  1
  O  O28  1  0.09015100  0.99871400  0.10846000  1
  O  O29  1  0.59015100  0.50128600  0.10846000  1
  O  O30  1  0.67113000  0.76522600  0.14806000  1
  O  O31  1  0.17113000  0.73477400  0.14806000  1
  O  O32  1  0.65159900  0.26560500  0.16551300  1
  O  O33  1  0.15159900  0.23439500  0.16551300  1
  O  O34  1  0.83009800  0.07213700  0.22995000  1
  O  O35  1  0.33009800  0.42786300  0.22995000  1
  O  O36  1  0.33009800  0.92786300  0.27005000  1
  O  O37  1  0.83009800  0.57213700  0.27005000  1
  O  O38  1  0.65159900  0.76560500  0.33448700  1
  O  O39  1  0.15159900  0.73439500  0.33448700  1
  O  O40  1  0.67113000  0.26522600  0.35194000  1
  O  O41  1  0.17113000  0.23477400  0.35194000  1
  O  O42  1  0.09015100  0.49871400  0.39154000  1
  O  O43  1  0.59015100  0.00128600  0.39154000  1
  O  O44  1  0.13028600  0.95311800  0.42232600  1
  O  O45  1  0.63028600  0.54688200  0.42232600  1
  O  O46  1  0.41988000  0.78849500  0.47644300  1
  O  O47  1  0.91988000  0.71150500  0.47644300  1
  O  O48  1  0.08012000  0.28849500  0.52355700  1
  O  O49  1  0.58012000  0.21150500  0.52355700  1
  O  O50  1  0.36971400  0.45311800  0.57767400  1
  O  O51  1  0.86971400  0.04688200  0.57767400  1
  O  O52  1  0.40984900  0.99871400  0.60846000  1
  O  O53  1  0.90984900  0.50128600  0.60846000  1
  O  O54  1  0.82887000  0.76522600  0.64806000  1
  O  O55  1  0.32887000  0.73477400  0.64806000  1
  O  O56  1  0.84840100  0.26560500  0.66551300  1
  O  O57  1  0.34840100  0.23439500  0.66551300  1
  O  O58  1  0.16990200  0.42786300  0.72995000  1
  O  O59  1  0.66990200  0.07213700  0.72995000  1
  O  O60  1  0.16990200  0.92786300  0.77005000  1
  O  O61  1  0.66990200  0.57213700  0.77005000  1
  O  O62  1  0.84840100  0.76560500  0.83448700  1
  O  O63  1  0.34840100  0.73439500  0.83448700  1
  O  O64  1  0.82887000  0.26522600  0.85194000  1
  O  O65  1  0.32887000  0.23477400  0.85194000  1
  O  O66  1  0.40984900  0.49871400  0.89154000  1
  O  O67  1  0.90984900  0.00128600  0.89154000  1
  O  O68  1  0.36971400  0.95311800  0.92232600  1
  O  O69  1  0.86971400  0.54688200  0.92232600  1
  O  O70  1  0.08012000  0.78849500  0.97644300  1
  O  O71  1  0.58012000  0.71150500  0.97644300  1
