# generated using pymatgen
data_GeO2
_symmetry_space_group_name_H-M   'P 1'
_cell_length_a   5.08727200
_cell_length_b   5.08727200
_cell_length_c   7.29155000
_cell_angle_alpha   90.00000000
_cell_angle_beta   90.00000000
_cell_angle_gamma   90.00000000
_symmetry_Int_Tables_number   1
_chemical_formula_structural   GeO2
_chemical_formula_sum   'Ge4 O8'
_cell_volume   188.70776689
_cell_formula_units_Z   4
loop_
 _symmetry_equiv_pos_site_id
 _symmetry_equiv_pos_as_xyz
  1  'x, y, z'
loop_
 _atom_site_type_symbol
 _atom_site_label
 _atom_site_symmetry_multiplicity
 _atom_site_fract_x
 _atom_site_fract_y
 _atom_site_fract_z
 _atom_site_occupancy
  Ge  Ge0  1  0.68121100  0.68121100  0.50000000  1
  Ge  Ge1  1  0.81878900  0.18121100  0.75000000  1
  Ge  Ge2  1  0.18121100  0.81878900  0.25000000  1
  Ge  Ge3  1  0.31878900  0.31878900  0.00000000  1
  O  O4  1  0.84332000  0.77204900  0.29587100  1
  O  O5  1  0.15668000  0.22795100  0.79587100  1
  O  O6  1  0.77204900  0.84332000  0.70412900  1
  O  O7  1  0.27204900  0.65668000  0.04587100  1
  O  O8  1  0.22795100  0.15668000  0.20412900  1
  O  O9  1  0.34332000  0.72795100  0.45412900  1
  O  O10  1  0.65668000  0.27204900  0.95412900  1
  O  O11  1  0.72795100  0.34332000  0.54587100  1
