# generated using pymatgen
data_VOF2
_symmetry_space_group_name_H-M   'P 1'
_cell_length_a   5.22295600
_cell_length_b   5.22332321
_cell_length_c   13.37940278
_cell_angle_alpha   89.43109483
_cell_angle_beta   89.34120877
_cell_angle_gamma   60.25324929
_symmetry_Int_Tables_number   1
_chemical_formula_structural   VOF2
_chemical_formula_sum   'V6 O6 F12'
_cell_volume   316.88334208
_cell_formula_units_Z   6
loop_
 _symmetry_equiv_pos_site_id
 _symmetry_equiv_pos_as_xyz
  1  'x, y, z'
loop_
 _atom_site_type_symbol
 _atom_site_label
 _atom_site_symmetry_multiplicity
 _atom_site_fract_x
 _atom_site_fract_y
 _atom_site_fract_z
 _atom_site_occupancy
  V  V0  1  0.00770900  0.03004600  0.49257900  1
  V  V1  1  0.97022600  0.00927200  0.99349200  1
  V  V2  1  0.36501100  0.30384200  0.82628800  1
  V  V3  1  0.69389300  0.68333800  0.66048700  1
  V  V4  1  0.35185800  0.34436600  0.32548700  1
  V  V5  1  0.66324100  0.68422600  0.15932700  1
  O  O6  1  0.57455700  0.00934100  0.75295000  1
  O  O7  1  0.67878900  0.22918700  0.92084200  1
  O  O8  1  0.90398000  0.76202200  0.58580400  1
  O  O9  1  0.56430500  0.42207700  0.25000100  1
  O  O10  1  0.08666600  0.24164100  0.41831000  1
  O  O11  1  0.75280700  0.89424300  0.08590000  1
  F  F12  1  0.99323500  0.41266800  0.75438300  1
  F  F13  1  0.66783000  0.07149800  0.41571300  1
  F  F14  1  0.92995500  0.31621600  0.08780100  1
  F  F15  1  0.73624400  0.33813400  0.58493700  1
  F  F16  1  0.39048800  0.00784300  0.24844300  1
  F  F17  1  0.97865600  0.60190500  0.25788300  1
  F  F18  1  0.26193400  0.07205500  0.92007400  1
  F  F19  1  0.41811800  0.59234100  0.74967900  1
  F  F20  1  0.26514900  0.65580900  0.42363800  1
  F  F21  1  0.32829800  0.73787600  0.08037000  1
  F  F22  1  0.09677800  0.64742500  0.91591600  1
  F  F23  1  0.32027400  0.93263000  0.58969600  1
