# generated using pymatgen
data_Tb2TiO5
_symmetry_space_group_name_H-M   'P 1'
_cell_length_a   3.64796200
_cell_length_b   7.48769600
_cell_length_c   15.65112200
_cell_angle_alpha   90.00000000
_cell_angle_beta   90.00000000
_cell_angle_gamma   90.00000000
_symmetry_Int_Tables_number   1
_chemical_formula_structural   Tb2TiO5
_chemical_formula_sum   'Tb8 Ti4 O20'
_cell_volume   427.50774418
_cell_formula_units_Z   4
loop_
 _symmetry_equiv_pos_site_id
 _symmetry_equiv_pos_as_xyz
  1  'x, y, z'
loop_
 _atom_site_type_symbol
 _atom_site_label
 _atom_site_symmetry_multiplicity
 _atom_site_fract_x
 _atom_site_fract_y
 _atom_site_fract_z
 _atom_site_occupancy
  Tb  Tb0  1  0.25000000  0.11302000  0.08259400  1
  Tb  Tb1  1  0.25000000  0.14322300  0.73844000  1
  Tb  Tb2  1  0.75000000  0.35677700  0.23844000  1
  Tb  Tb3  1  0.75000000  0.38698000  0.58259400  1
  Tb  Tb4  1  0.25000000  0.61302000  0.41740600  1
  Tb  Tb5  1  0.25000000  0.64322300  0.76156000  1
  Tb  Tb6  1  0.75000000  0.85677700  0.26156000  1
  Tb  Tb7  1  0.75000000  0.88698000  0.91740600  1
  Ti  Ti8  1  0.25000000  0.12355700  0.42300200  1
  Ti  Ti9  1  0.75000000  0.37644300  0.92300200  1
  Ti  Ti10  1  0.25000000  0.62355700  0.07699800  1
  Ti  Ti11  1  0.75000000  0.87644300  0.57699800  1
  O  O12  1  0.75000000  0.08942800  0.17382200  1
  O  O13  1  0.75000000  0.08335900  0.45392900  1
  O  O14  1  0.75000000  0.10386200  0.64935900  1
  O  O15  1  0.75000000  0.15425500  0.99457100  1
  O  O16  1  0.25000000  0.26503800  0.32553200  1
  O  O17  1  0.75000000  0.23496200  0.82553200  1
  O  O18  1  0.25000000  0.34574500  0.49457100  1
  O  O19  1  0.25000000  0.39613800  0.14935900  1
  O  O20  1  0.25000000  0.41664100  0.95392900  1
  O  O21  1  0.25000000  0.41057200  0.67382200  1
  O  O22  1  0.75000000  0.58942800  0.32617800  1
  O  O23  1  0.75000000  0.58335900  0.04607100  1
  O  O24  1  0.75000000  0.60386200  0.85064100  1
  O  O25  1  0.75000000  0.65425500  0.50542900  1
  O  O26  1  0.25000000  0.76503800  0.17446800  1
  O  O27  1  0.75000000  0.73496200  0.67446800  1
  O  O28  1  0.25000000  0.84574500  0.00542900  1
  O  O29  1  0.25000000  0.89613800  0.35064100  1
  O  O30  1  0.25000000  0.91664100  0.54607100  1
  O  O31  1  0.25000000  0.91057200  0.82617800  1
