# generated using pymatgen
data_Mn12O7F17
_symmetry_space_group_name_H-M   'P 1'
_cell_length_a   4.80046500
_cell_length_b   5.79388353
_cell_length_c   15.85539258
_cell_angle_alpha   89.45927062
_cell_angle_beta   89.78954438
_cell_angle_gamma   86.13893996
_symmetry_Int_Tables_number   1
_chemical_formula_structural   Mn12O7F17
_chemical_formula_sum   'Mn12 O7 F17'
_cell_volume   439.96878379
_cell_formula_units_Z   1
loop_
 _symmetry_equiv_pos_site_id
 _symmetry_equiv_pos_as_xyz
  1  'x, y, z'
loop_
 _atom_site_type_symbol
 _atom_site_label
 _atom_site_symmetry_multiplicity
 _atom_site_fract_x
 _atom_site_fract_y
 _atom_site_fract_z
 _atom_site_occupancy
  Mn  Mn0  1  0.99841500  0.82198900  0.41292600  1
  Mn  Mn1  1  0.96332800  0.17045400  0.24535100  1
  Mn  Mn2  1  0.00444400  0.84604600  0.08483800  1
  Mn  Mn3  1  0.98467400  0.84465300  0.74382300  1
  Mn  Mn4  1  0.00105900  0.14961400  0.58136700  1
  Mn  Mn5  1  0.97819400  0.16299100  0.90519200  1
  Mn  Mn6  1  0.51446100  0.68812900  0.59810800  1
  Mn  Mn7  1  0.47590900  0.66984600  0.92676600  1
  Mn  Mn8  1  0.49915700  0.64401300  0.25726200  1
  Mn  Mn9  1  0.49546600  0.33900900  0.08404000  1
  Mn  Mn10  1  0.49078300  0.35465900  0.41072200  1
  Mn  Mn11  1  0.50462700  0.34737600  0.75083200  1
  O  O12  1  0.79449200  0.88928700  0.63754700  1
  O  O13  1  0.77914800  0.11586600  0.13394400  1
  O  O14  1  0.76555100  0.11001300  0.79671700  1
  O  O15  1  0.71460400  0.39413900  0.31011400  1
  O  O16  1  0.27460500  0.60969600  0.03761500  1
  O  O17  1  0.28378800  0.60836800  0.35819500  1
  O  O18  1  0.28768500  0.61799700  0.69762300  1
  F  F19  1  0.76029500  0.89279800  0.30534400  1
  F  F20  1  0.78210400  0.88272000  0.97322400  1
  F  F21  1  0.75541400  0.12011300  0.46710000  1
  F  F22  1  0.73466300  0.61724400  0.15115600  1
  F  F23  1  0.72898300  0.62338700  0.48683600  1
  F  F24  1  0.74530900  0.38446400  0.64328500  1
  F  F25  1  0.73459200  0.59973800  0.81510500  1
  F  F26  1  0.72976900  0.38225100  0.97945400  1
  F  F27  1  0.27066800  0.36999600  0.19003600  1
  F  F28  1  0.27314300  0.38125500  0.52159600  1
  F  F29  1  0.27888900  0.38238200  0.86172500  1
  F  F30  1  0.23367000  0.87439300  0.19808800  1
  F  F31  1  0.24058900  0.88996500  0.52169500  1
  F  F32  1  0.20953100  0.11364000  0.35496200  1
  F  F33  1  0.23925800  0.10252100  0.01744400  1
  F  F34  1  0.21439900  0.87679800  0.84997300  1
  F  F35  1  0.25833500  0.12219300  0.68999500  1
