# generated using pymatgen
data_Ba9La5Cl33
_symmetry_space_group_name_H-M   'P 1'
_cell_length_a   11.58642900
_cell_length_b   11.62012633
_cell_length_c   22.29045889
_cell_angle_alpha   100.16162910
_cell_angle_beta   99.46763857
_cell_angle_gamma   108.35265857
_symmetry_Int_Tables_number   1
_chemical_formula_structural   Ba9La5Cl33
_chemical_formula_sum   'Ba18 La10 Cl66'
_cell_volume   2724.89004916
_cell_formula_units_Z   2
loop_
 _symmetry_equiv_pos_site_id
 _symmetry_equiv_pos_as_xyz
  1  'x, y, z'
loop_
 _atom_site_type_symbol
 _atom_site_label
 _atom_site_symmetry_multiplicity
 _atom_site_fract_x
 _atom_site_fract_y
 _atom_site_fract_z
 _atom_site_occupancy
  Ba  Ba0  1  0.92766700  0.25450100  0.93060500  1
  Ba  Ba1  1  0.32071400  0.09257600  0.96743000  1
  Ba  Ba2  1  0.47106000  0.02097600  0.19438700  1
  Ba  Ba3  1  0.87042500  0.26857600  0.33891800  1
  Ba  Ba4  1  0.25068400  0.12273800  0.37576500  1
  Ba  Ba5  1  0.67717800  0.40020400  0.53813900  1
  Ba  Ba6  1  0.07234800  0.24198300  0.56406000  1
  Ba  Ba7  1  0.75623800  0.36164500  0.12246100  1
  Ba  Ba8  1  0.13415800  0.22676800  0.16071200  1
  Ba  Ba9  1  0.86584200  0.77323200  0.83928800  1
  Ba  Ba10  1  0.24376200  0.63835500  0.87753900  1
  Ba  Ba11  1  0.92765200  0.75801700  0.43594000  1
  Ba  Ba12  1  0.32282200  0.59979600  0.46186100  1
  Ba  Ba13  1  0.74931600  0.87726200  0.62423500  1
  Ba  Ba14  1  0.12957500  0.73142400  0.66108200  1
  Ba  Ba15  1  0.52894000  0.97902400  0.80561300  1
  Ba  Ba16  1  0.67928600  0.90742400  0.03257000  1
  Ba  Ba17  1  0.07233300  0.74549900  0.06939500  1
  La  La18  1  0.38216700  0.04447800  0.58644400  1
  La  La19  1  0.18113700  0.14400000  0.76604100  1
  La  La20  1  0.85527800  0.35055600  0.73268100  1
  La  La21  1  0.62442000  0.45805300  0.92519900  1
  La  La22  1  0.46192300  0.53506000  0.68774500  1
  La  La23  1  0.53807700  0.46494000  0.31225500  1
  La  La24  1  0.37558000  0.54194700  0.07480100  1
  La  La25  1  0.14472200  0.64944400  0.26731900  1
  La  La26  1  0.81886300  0.85600000  0.23395900  1
  La  La27  1  0.61783300  0.95552200  0.41355600  1
  Cl  Cl28  1  0.77397500  0.14184100  0.78330800  1
  Cl  Cl29  1  0.95183500  0.15635500  0.67589100  1
  Cl  Cl30  1  0.62163800  0.21231000  0.91981700  1
  Cl  Cl31  1  0.74211100  0.04476000  0.19457900  1
  Cl  Cl32  1  0.16252900  0.01787900  0.63753100  1
  Cl  Cl33  1  0.06456900  0.07746400  0.87328900  1
  Cl  Cl34  1  0.65355100  0.18446600  0.62807500  1
  Cl  Cl35  1  0.43860200  0.18041500  0.73795500  1
  Cl  Cl36  1  0.80824400  0.22054400  0.47361400  1
  Cl  Cl37  1  0.58130400  0.11499100  0.33964200  1
  Cl  Cl38  1  0.47958700  0.11772800  0.47541400  1
  Cl  Cl39  1  0.16228000  0.03747400  0.48899400  1
  Cl  Cl40  1  0.35769300  0.29889600  0.87903100  1
  Cl  Cl41  1  0.88608700  0.18576100  0.06113300  1
  Cl  Cl42  1  0.81745700  0.45385400  0.85456600  1
  Cl  Cl43  1  0.55150000  0.10515400  0.07363400  1
  Cl  Cl44  1  0.94295900  0.42866400  0.62661600  1
  Cl  Cl45  1  0.24085700  0.03533000  0.09362100  1
  Cl  Cl46  1  0.39738900  0.30174800  0.59078600  1
  Cl  Cl47  1  0.98162900  0.38414800  0.22649900  1
  Cl  Cl48  1  0.35304900  0.21339800  0.26375800  1
  Cl  Cl49  1  0.65598400  0.31572800  0.24208500  1
  Cl  Cl50  1  0.03140900  0.11461900  0.27476600  1
  Cl  Cl51  1  0.25167600  0.35882700  0.71125600  1
  Cl  Cl52  1  0.70324900  0.49904000  0.69353700  1
  Cl  Cl53  1  0.07368700  0.35215300  0.82139400  1
  Cl  Cl54  1  0.75089900  0.46686200  0.40467900  1
  Cl  Cl55  1  0.56796500  0.55993300  0.82102100  1
  Cl  Cl56  1  0.45188300  0.39419700  0.42242400  1
  Cl  Cl57  1  0.79782000  0.71255800  0.96843000  1
  Cl  Cl58  1  0.47391900  0.61058600  0.96607700  1
  Cl  Cl59  1  0.12621500  0.31682300  0.43692800  1
  Cl  Cl60  1  0.15124200  0.52874500  0.98458500  1
  Cl  Cl61  1  0.84875800  0.47125500  0.01541500  1
  Cl  Cl62  1  0.87378500  0.68317700  0.56307200  1
  Cl  Cl63  1  0.52608100  0.38941400  0.03392300  1
  Cl  Cl64  1  0.20218000  0.28744200  0.03157000  1
  Cl  Cl65  1  0.54811700  0.60580300  0.57757600  1
  Cl  Cl66  1  0.43203500  0.44006700  0.17897900  1
  Cl  Cl67  1  0.24910100  0.53313800  0.59532100  1
  Cl  Cl68  1  0.92631300  0.64784700  0.17860600  1
  Cl  Cl69  1  0.29675100  0.50096000  0.30646300  1
  Cl  Cl70  1  0.74832400  0.64117300  0.28874400  1
  Cl  Cl71  1  0.96859100  0.88538100  0.72523400  1
  Cl  Cl72  1  0.34401600  0.68427200  0.75791500  1
  Cl  Cl73  1  0.64695100  0.78660200  0.73624200  1
  Cl  Cl74  1  0.01837100  0.61585200  0.77350100  1
  Cl  Cl75  1  0.60261100  0.69825200  0.40921400  1
  Cl  Cl76  1  0.75914300  0.96467000  0.90637900  1
  Cl  Cl77  1  0.05704100  0.57133600  0.37338400  1
  Cl  Cl78  1  0.44850000  0.89484600  0.92636600  1
  Cl  Cl79  1  0.18254300  0.54614600  0.14543400  1
  Cl  Cl80  1  0.11391300  0.81423900  0.93886700  1
  Cl  Cl81  1  0.64230700  0.70110400  0.12096900  1
  Cl  Cl82  1  0.83772000  0.96252600  0.51100600  1
  Cl  Cl83  1  0.52041300  0.88227200  0.52458600  1
  Cl  Cl84  1  0.41869600  0.88500900  0.66035800  1
  Cl  Cl85  1  0.19175600  0.77945600  0.52638600  1
  Cl  Cl86  1  0.56139800  0.81958500  0.26204500  1
  Cl  Cl87  1  0.34644900  0.81553400  0.37192500  1
  Cl  Cl88  1  0.93543100  0.92253600  0.12671100  1
  Cl  Cl89  1  0.83747100  0.98212100  0.36246900  1
  Cl  Cl90  1  0.25788900  0.95524000  0.80542100  1
  Cl  Cl91  1  0.37836200  0.78769000  0.08018300  1
  Cl  Cl92  1  0.04816500  0.84364500  0.32410900  1
  Cl  Cl93  1  0.22602500  0.85815900  0.21669200  1
