# generated using pymatgen
data_SmH10S3N3O11
_symmetry_space_group_name_H-M   'P 1'
_cell_length_a   7.92462900
_cell_length_b   9.17616062
_cell_length_c   9.24946085
_cell_angle_alpha   117.47905119
_cell_angle_beta   95.12146056
_cell_angle_gamma   92.41094458
_symmetry_Int_Tables_number   1
_chemical_formula_structural   SmH10S3N3O11
_chemical_formula_sum   'Sm2 H20 S6 N6 O22'
_cell_volume   591.69007201
_cell_formula_units_Z   2
loop_
 _symmetry_equiv_pos_site_id
 _symmetry_equiv_pos_as_xyz
  1  'x, y, z'
loop_
 _atom_site_type_symbol
 _atom_site_label
 _atom_site_symmetry_multiplicity
 _atom_site_fract_x
 _atom_site_fract_y
 _atom_site_fract_z
 _atom_site_occupancy
  Sm  Sm0  1  0.21774500  0.38197300  0.21996400  1
  Sm  Sm1  1  0.78225500  0.61802700  0.78003600  1
  H  H2  1  0.12841900  0.96468500  0.32689700  1
  H  H3  1  0.14137300  0.24636600  0.62572800  1
  H  H4  1  0.20097200  0.44887200  0.74540400  1
  H  H5  1  0.32048200  0.32753400  0.88497900  1
  H  H6  1  0.32328300  0.89660800  0.32353200  1
  H  H7  1  0.36721600  0.78850100  0.78574700  1
  H  H8  1  0.27092600  0.02949300  0.14480200  1
  H  H9  1  0.29367400  0.03591200  0.97495500  1
  H  H10  1  0.39988100  0.88207200  0.67210600  1
  H  H11  1  0.49485900  0.33927300  0.99556000  1
  H  H12  1  0.50514100  0.66072700  0.00444000  1
  H  H13  1  0.60011900  0.11792800  0.32789400  1
  H  H14  1  0.70632600  0.96408800  0.02504500  1
  H  H15  1  0.72907400  0.97050700  0.85519800  1
  H  H16  1  0.63278400  0.21149900  0.21425300  1
  H  H17  1  0.67671700  0.10339200  0.67646800  1
  H  H18  1  0.67951800  0.67246600  0.11502100  1
  H  H19  1  0.79902800  0.55112800  0.25459600  1
  H  H20  1  0.85862700  0.75363400  0.37427200  1
  H  H21  1  0.87158100  0.03531500  0.67310300  1
  S  S22  1  0.13474700  0.76211700  0.61913100  1
  S  S23  1  0.14510000  0.72121900  0.10446700  1
  S  S24  1  0.39906800  0.32232700  0.58434900  1
  S  S25  1  0.60093200  0.67767300  0.41565100  1
  S  S26  1  0.85490000  0.27878100  0.89553300  1
  S  S27  1  0.86525300  0.23788300  0.38086900  1
  N  N28  1  0.24159800  0.33277900  0.69634700  1
  N  N29  1  0.22070900  0.90789000  0.25339700  1
  N  N30  1  0.31501600  0.86185500  0.74050300  1
  N  N31  1  0.68498400  0.13814500  0.25949700  1
  N  N32  1  0.77929100  0.09211000  0.74660300  1
  N  N33  1  0.75840200  0.66722100  0.30365300  1
  O  O34  1  0.02089100  0.25213900  0.95905300  1
  O  O35  1  0.03493700  0.72982100  0.73026000  1
  O  O36  1  0.06354000  0.87426200  0.56416400  1
  O  O37  1  0.12539900  0.60700000  0.17547000  1
  O  O38  1  0.17306800  0.60526200  0.48350900  1
  O  O39  1  0.27059700  0.67369300  0.98801100  1
  O  O40  1  0.37020300  0.33567900  0.99176400  1
  O  O41  1  0.32607000  0.29795800  0.42186600  1
  O  O42  1  0.29785000  0.10280600  0.09514500  1
  O  O43  1  0.49727300  0.48487800  0.68170200  1
  O  O44  1  0.48945800  0.18290100  0.57063100  1
  O  O45  1  0.51054200  0.81709900  0.42936900  1
  O  O46  1  0.50272700  0.51512200  0.31829800  1
  O  O47  1  0.70215000  0.89719400  0.90485500  1
  O  O48  1  0.67393000  0.70204200  0.57813400  1
  O  O49  1  0.62979700  0.66432100  0.00823600  1
  O  O50  1  0.72940300  0.32630700  0.01198900  1
  O  O51  1  0.82693200  0.39473800  0.51649100  1
  O  O52  1  0.87460100  0.39300000  0.82453000  1
  O  O53  1  0.93646000  0.12573800  0.43583600  1
  O  O54  1  0.96506300  0.27017900  0.26974000  1
  O  O55  1  0.97910900  0.74786100  0.04094700  1
