# generated using pymatgen
data_Na3SbH30S3N10
_symmetry_space_group_name_H-M   'P 1'
_cell_length_a   6.16099500
_cell_length_b   10.00047200
_cell_length_c   34.04877328
_cell_angle_alpha   88.65591499
_cell_angle_beta   90.00000000
_cell_angle_gamma   90.00000000
_symmetry_Int_Tables_number   1
_chemical_formula_structural   Na3SbH30S3N10
_chemical_formula_sum   'Na12 Sb4 H120 S12 N40'
_cell_volume   2097.26502632
_cell_formula_units_Z   4
loop_
 _symmetry_equiv_pos_site_id
 _symmetry_equiv_pos_as_xyz
  1  'x, y, z'
loop_
 _atom_site_type_symbol
 _atom_site_label
 _atom_site_symmetry_multiplicity
 _atom_site_fract_x
 _atom_site_fract_y
 _atom_site_fract_z
 _atom_site_occupancy
  Na  Na0  1  0.49896200  0.06044500  0.41212100  1
  Na  Na1  1  0.00103800  0.06044500  0.91212100  1
  Na  Na2  1  0.55016000  0.40972800  0.32266700  1
  Na  Na3  1  0.94984000  0.40972800  0.82266700  1
  Na  Na4  1  0.47991800  0.45463800  0.44688100  1
  Na  Na5  1  0.02008200  0.45463800  0.94688100  1
  Na  Na6  1  0.97991800  0.54536200  0.05311900  1
  Na  Na7  1  0.52008200  0.54536200  0.55311900  1
  Na  Na8  1  0.05016000  0.59027200  0.17733300  1
  Na  Na9  1  0.44984000  0.59027200  0.67733300  1
  Na  Na10  1  0.99896200  0.93955500  0.08787900  1
  Na  Na11  1  0.50103800  0.93955500  0.58787900  1
  Sb  Sb12  1  0.96530000  0.31258700  0.39802600  1
  Sb  Sb13  1  0.53470000  0.31258700  0.89802600  1
  Sb  Sb14  1  0.46530000  0.68741300  0.10197400  1
  Sb  Sb15  1  0.03470000  0.68741300  0.60197400  1
  H  H16  1  0.73828300  0.04051400  0.01286100  1
  H  H17  1  0.12521300  0.01773700  0.35726700  1
  H  H18  1  0.78924600  0.03181700  0.23946100  1
  H  H19  1  0.76171700  0.04051400  0.51286100  1
  H  H20  1  0.83556500  0.05954600  0.16168000  1
  H  H21  1  0.37478700  0.01773700  0.85726700  1
  H  H22  1  0.32769900  0.06689800  0.10307600  1
  H  H23  1  0.71075400  0.03181700  0.73946100  1
  H  H24  1  0.66443500  0.05954600  0.66168000  1
  H  H25  1  0.29467500  0.08739500  0.18395100  1
  H  H26  1  0.11362100  0.09108600  0.46740800  1
  H  H27  1  0.36239700  0.12255800  0.05812600  1
  H  H28  1  0.17230100  0.06689800  0.60307600  1
  H  H29  1  0.69040200  0.13407000  0.12771400  1
  H  H30  1  0.35659800  0.10578700  0.48674300  1
  H  H31  1  0.20532500  0.08739500  0.68395100  1
  H  H32  1  0.38637900  0.09108600  0.96740800  1
  H  H33  1  0.13760300  0.12255800  0.55812600  1
  H  H34  1  0.61937000  0.15289300  0.22903200  1
  H  H35  1  0.80959800  0.13407000  0.62771400  1
  H  H36  1  0.14340200  0.10578700  0.98674300  1
  H  H37  1  0.79165300  0.16544800  0.26587900  1
  H  H38  1  0.11122400  0.17790600  0.20607000  1
  H  H39  1  0.39686500  0.17024300  0.30914600  1
  H  H40  1  0.88063000  0.15289300  0.72903200  1
  H  H41  1  0.70834700  0.16544800  0.76587900  1
  H  H42  1  0.27264900  0.22454400  0.09165000  1
  H  H43  1  0.38877600  0.17790600  0.70607000  1
  H  H44  1  0.29240800  0.21671300  0.26637200  1
  H  H45  1  0.10313500  0.17024300  0.80914600  1
  H  H46  1  0.14675300  0.22724000  0.30723200  1
  H  H47  1  0.29449600  0.25077200  0.17731000  1
  H  H48  1  0.22735100  0.22454400  0.59165000  1
  H  H49  1  0.85810100  0.25347600  0.07250300  1
  H  H50  1  0.20759200  0.21671300  0.76637200  1
  H  H51  1  0.35324700  0.22724000  0.80723200  1
  H  H52  1  0.20550400  0.25077200  0.67731000  1
  H  H53  1  0.64189900  0.25347600  0.57250300  1
  H  H54  1  0.73505900  0.30764700  0.03241600  1
  H  H55  1  0.20154400  0.32683800  0.02386100  1
  H  H56  1  0.78392900  0.31493600  0.18818800  1
  H  H57  1  0.76494100  0.30764700  0.53241600  1
  H  H58  1  0.64531100  0.35452300  0.07579200  1
  H  H59  1  0.29845600  0.32683800  0.52386100  1
  H  H60  1  0.89957500  0.36508300  0.14692400  1
  H  H61  1  0.71607100  0.31493600  0.68818800  1
  H  H62  1  0.11165900  0.34414700  0.48976600  1
  H  H63  1  0.85468900  0.35452300  0.57579200  1
  H  H64  1  0.60042500  0.36508300  0.64692400  1
  H  H65  1  0.65148700  0.41454600  0.15681700  1
  H  H66  1  0.38834100  0.34414700  0.98976600  1
  H  H67  1  0.85185800  0.42265400  0.24890800  1
  H  H68  1  0.33151100  0.46810800  0.01866600  1
  H  H69  1  0.34283300  0.42926700  0.23233400  1
  H  H70  1  0.84851300  0.41454600  0.65681700  1
  H  H71  1  0.97482300  0.45040200  0.29050300  1
  H  H72  1  0.64814200  0.42265400  0.74890800  1
  H  H73  1  0.16848900  0.46810800  0.51866600  1
  H  H74  1  0.15716700  0.42926700  0.73233400  1
  H  H75  1  0.52517700  0.45040200  0.79050300  1
  H  H76  1  0.47482300  0.54959800  0.20949700  1
  H  H77  1  0.84283300  0.57073300  0.26766600  1
  H  H78  1  0.83151100  0.53189200  0.48133400  1
  H  H79  1  0.35185800  0.57734600  0.25109200  1
  H  H80  1  0.02517700  0.54959800  0.70949700  1
  H  H81  1  0.15148700  0.58545400  0.34318300  1
  H  H82  1  0.65716700  0.57073300  0.76766600  1
  H  H83  1  0.66848900  0.53189200  0.98133400  1
  H  H84  1  0.14814200  0.57734600  0.75109200  1
  H  H85  1  0.61165900  0.65585300  0.01023400  1
  H  H86  1  0.34851300  0.58545400  0.84318300  1
  H  H87  1  0.39957500  0.63491700  0.35307600  1
  H  H88  1  0.14531100  0.64547700  0.42420800  1
  H  H89  1  0.88834100  0.65585300  0.51023400  1
  H  H90  1  0.28392900  0.68506400  0.31181200  1
  H  H91  1  0.10042500  0.63491700  0.85307600  1
  H  H92  1  0.70154400  0.67316200  0.47613900  1
  H  H93  1  0.35468900  0.64547700  0.92420800  1
  H  H94  1  0.23505900  0.69235300  0.46758400  1
  H  H95  1  0.21607100  0.68506400  0.81181200  1
  H  H96  1  0.79845600  0.67316200  0.97613900  1
  H  H97  1  0.26494100  0.69235300  0.96758400  1
  H  H98  1  0.35810100  0.74652400  0.42749700  1
  H  H99  1  0.79449600  0.74922800  0.32269000  1
  H  H100  1  0.64675300  0.77276000  0.19276800  1
  H  H101  1  0.79240800  0.78328700  0.23362800  1
  H  H102  1  0.14189900  0.74652400  0.92749700  1
  H  H103  1  0.77264900  0.77545600  0.40835000  1
  H  H104  1  0.70550400  0.74922800  0.82269000  1
  H  H105  1  0.85324700  0.77276000  0.69276800  1
  H  H106  1  0.89686500  0.82975700  0.19085400  1
  H  H107  1  0.70759200  0.78328700  0.73362800  1
  H  H108  1  0.61122400  0.82209400  0.29393000  1
  H  H109  1  0.72735100  0.77545600  0.90835000  1
  H  H110  1  0.29165300  0.83455200  0.23412100  1
  H  H111  1  0.11937000  0.84710700  0.27096800  1
  H  H112  1  0.60313500  0.82975700  0.69085400  1
  H  H113  1  0.88877600  0.82209400  0.79393000  1
  H  H114  1  0.20834700  0.83455200  0.73412100  1
  H  H115  1  0.85659800  0.89421300  0.01325700  1
  H  H116  1  0.19040200  0.86593000  0.37228600  1
  H  H117  1  0.38063000  0.84710700  0.77096800  1
  H  H118  1  0.86239700  0.87744200  0.44187400  1
  H  H119  1  0.61362100  0.90891400  0.03259200  1
  H  H120  1  0.79467500  0.91260500  0.31604900  1
  H  H121  1  0.64340200  0.89421300  0.51325700  1
  H  H122  1  0.30959800  0.86593000  0.87228600  1
  H  H123  1  0.82769900  0.93310200  0.39692400  1
  H  H124  1  0.63760300  0.87744200  0.94187400  1
  H  H125  1  0.88637900  0.90891400  0.53259200  1
  H  H126  1  0.70532500  0.91260500  0.81604900  1
  H  H127  1  0.33556500  0.94045400  0.33832000  1
  H  H128  1  0.28924600  0.96818300  0.26053900  1
  H  H129  1  0.67230100  0.93310200  0.89692400  1
  H  H130  1  0.62521300  0.98226300  0.14273300  1
  H  H131  1  0.16443500  0.94045400  0.83832000  1
  H  H132  1  0.23828300  0.95948600  0.48713900  1
  H  H133  1  0.21075400  0.96818300  0.76053900  1
  H  H134  1  0.87478700  0.98226300  0.64273300  1
  H  H135  1  0.26171700  0.95948600  0.98713900  1
  S  S136  1  0.79156500  0.17085900  0.34945500  1
  S  S137  1  0.70843500  0.17085900  0.84945500  1
  S  S138  1  0.77311200  0.24055600  0.45778500  1
  S  S139  1  0.72688800  0.24055600  0.95778500  1
  S  S140  1  0.29518700  0.46956200  0.11417400  1
  S  S141  1  0.20481300  0.46956200  0.61417400  1
  S  S142  1  0.79518700  0.53043800  0.38582600  1
  S  S143  1  0.70481300  0.53043800  0.88582600  1
  S  S144  1  0.27311200  0.75944400  0.04221500  1
  S  S145  1  0.22688800  0.75944400  0.54221500  1
  S  S146  1  0.29156500  0.82914100  0.15054500  1
  S  S147  1  0.20843500  0.82914100  0.65054500  1
  N  N148  1  0.75517400  0.04349500  0.13589200  1
  N  N149  1  0.26225300  0.04461000  0.47020000  1
  N  N150  1  0.74482600  0.04349500  0.63589200  1
  N  N151  1  0.23774700  0.04461000  0.97020000  1
  N  N152  1  0.26071400  0.12851500  0.08171500  1
  N  N153  1  0.77682700  0.13383900  0.23747800  1
  N  N154  1  0.23928600  0.12851500  0.58171500  1
  N  N155  1  0.27231200  0.17593500  0.19808200  1
  N  N156  1  0.72317300  0.13383900  0.73747800  1
  N  N157  1  0.22768800  0.17593500  0.69808200  1
  N  N158  1  0.29949000  0.24035400  0.29551700  1
  N  N159  1  0.20051000  0.24035400  0.79551700  1
  N  N160  1  0.78344500  0.33525700  0.05993500  1
  N  N161  1  0.71655500  0.33525700  0.55993500  1
  N  N162  1  0.26125500  0.39273200  0.00312800  1
  N  N163  1  0.80101600  0.39551100  0.16926900  1
  N  N164  1  0.23874500  0.39273200  0.50312800  1
  N  N165  1  0.69898400  0.39551100  0.66926900  1
  N  N166  1  0.83638700  0.47094700  0.27490800  1
  N  N167  1  0.66361300  0.47094700  0.77490800  1
  N  N168  1  0.33638700  0.52905300  0.22509200  1
  N  N169  1  0.16361300  0.52905300  0.72509200  1
  N  N170  1  0.30101600  0.60448900  0.33073100  1
  N  N171  1  0.76125500  0.60726800  0.49687200  1
  N  N172  1  0.19898400  0.60448900  0.83073100  1
  N  N173  1  0.73874500  0.60726800  0.99687200  1
  N  N174  1  0.28344500  0.66474300  0.44006500  1
  N  N175  1  0.21655500  0.66474300  0.94006500  1
  N  N176  1  0.79949000  0.75964600  0.20448300  1
  N  N177  1  0.70051000  0.75964600  0.70448300  1
  N  N178  1  0.77231200  0.82406500  0.30191800  1
  N  N179  1  0.27682700  0.86616100  0.26252200  1
  N  N180  1  0.72768800  0.82406500  0.80191800  1
  N  N181  1  0.76071400  0.87148500  0.41828500  1
  N  N182  1  0.22317300  0.86616100  0.76252200  1
  N  N183  1  0.73928600  0.87148500  0.91828500  1
  N  N184  1  0.76225300  0.95539000  0.02980000  1
  N  N185  1  0.25517400  0.95650500  0.36410800  1
  N  N186  1  0.73774700  0.95539000  0.52980000  1
  N  N187  1  0.24482600  0.95650500  0.86410800  1
