# generated using pymatgen
data_HgO
_symmetry_space_group_name_H-M   'P 1'
_cell_length_a   3.75729532
_cell_length_b   3.75729532
_cell_length_c   8.95161300
_cell_angle_alpha   90.00000000
_cell_angle_beta   90.00000000
_cell_angle_gamma   119.99998802
_symmetry_Int_Tables_number   1
_chemical_formula_structural   HgO
_chemical_formula_sum   'Hg3 O3'
_cell_volume   109.44165338
_cell_formula_units_Z   3
loop_
 _symmetry_equiv_pos_site_id
 _symmetry_equiv_pos_as_xyz
  1  'x, y, z'
loop_
 _atom_site_type_symbol
 _atom_site_label
 _atom_site_symmetry_multiplicity
 _atom_site_fract_x
 _atom_site_fract_y
 _atom_site_fract_z
 _atom_site_occupancy
  Hg  Hg0  1  0.22766200  0.22766200  0.00000000  1
  Hg  Hg1  1  0.00000000  0.77233800  0.66666700  1
  Hg  Hg2  1  0.77233800  0.00000000  0.33333300  1
  O  O3  1  0.56064200  0.56064200  0.50000000  1
  O  O4  1  0.00000000  0.43935800  0.16666700  1
  O  O5  1  0.43935800  0.00000000  0.83333300  1
