# generated using pymatgen
data_K2Ni(CN)4
_symmetry_space_group_name_H-M   'P 1'
_cell_length_a   7.68119000
_cell_length_b   4.39515400
_cell_length_c   13.38457617
_cell_angle_alpha   89.17688116
_cell_angle_beta   90.00000000
_cell_angle_gamma   90.00000000
_symmetry_Int_Tables_number   1
_chemical_formula_structural   K2Ni(CN)4
_chemical_formula_sum   'K4 Ni2 C8 N8'
_cell_volume   451.81683656
_cell_formula_units_Z   2
loop_
 _symmetry_equiv_pos_site_id
 _symmetry_equiv_pos_as_xyz
  1  'x, y, z'
loop_
 _atom_site_type_symbol
 _atom_site_label
 _atom_site_symmetry_multiplicity
 _atom_site_fract_x
 _atom_site_fract_y
 _atom_site_fract_z
 _atom_site_occupancy
  K  K0  1  0.04226700  0.71501900  0.65545000  1
  K  K1  1  0.54226700  0.28498100  0.84455000  1
  K  K2  1  0.45773300  0.71501900  0.15545000  1
  K  K3  1  0.95773300  0.28498100  0.34455000  1
  Ni  Ni4  1  0.00000000  0.00000000  0.00000000  1
  Ni  Ni5  1  0.50000000  0.00000000  0.50000000  1
  C  C6  1  0.88238400  0.85007500  0.89151200  1
  C  C7  1  0.11761600  0.14992500  0.10848800  1
  C  C8  1  0.61761600  0.85007500  0.39151200  1
  C  C9  1  0.38238400  0.14992500  0.60848800  1
  C  C10  1  0.29245700  0.85504000  0.45091500  1
  C  C11  1  0.79245700  0.14496000  0.04908500  1
  C  C12  1  0.20754300  0.85504000  0.95091500  1
  C  C13  1  0.70754300  0.14496000  0.54908500  1
  N  N14  1  0.65754000  0.23485800  0.07801700  1
  N  N15  1  0.15754000  0.76514200  0.42198300  1
  N  N16  1  0.30336300  0.24109000  0.67728600  1
  N  N17  1  0.19663700  0.24109000  0.17728600  1
  N  N18  1  0.80336300  0.75891000  0.82271400  1
  N  N19  1  0.69663700  0.75891000  0.32271400  1
  N  N20  1  0.34246000  0.76514200  0.92198300  1
  N  N21  1  0.84246000  0.23485800  0.57801700  1
