# generated using pymatgen
data_MnOF
_symmetry_space_group_name_H-M   'P 1'
_cell_length_a   4.63671700
_cell_length_b   5.65178129
_cell_length_c   10.31061626
_cell_angle_alpha   90.03623531
_cell_angle_beta   91.03329112
_cell_angle_gamma   91.84761288
_symmetry_Int_Tables_number   1
_chemical_formula_structural   MnOF
_chemical_formula_sum   'Mn8 O8 F8'
_cell_volume   270.01243731
_cell_formula_units_Z   8
loop_
 _symmetry_equiv_pos_site_id
 _symmetry_equiv_pos_as_xyz
  1  'x, y, z'
loop_
 _atom_site_type_symbol
 _atom_site_label
 _atom_site_symmetry_multiplicity
 _atom_site_fract_x
 _atom_site_fract_y
 _atom_site_fract_z
 _atom_site_occupancy
  Mn  Mn0  1  0.02469900  0.15101100  0.37455200  1
  Mn  Mn1  1  0.95417000  0.86050100  0.62733400  1
  Mn  Mn2  1  0.97755100  0.17637500  0.87592300  1
  Mn  Mn3  1  0.02636100  0.84310800  0.13478500  1
  Mn  Mn4  1  0.52934400  0.34334000  0.11669300  1
  Mn  Mn5  1  0.46010300  0.35708200  0.62132800  1
  Mn  Mn6  1  0.47944400  0.61981600  0.87478700  1
  Mn  Mn7  1  0.51487900  0.65114300  0.37261000  1
  O  O8  1  0.80176000  0.11731300  0.04344100  1
  O  O9  1  0.81423300  0.88408700  0.29345100  1
  O  O10  1  0.68124800  0.38984800  0.78216300  1
  O  O11  1  0.70590600  0.62253500  0.54305200  1
  O  O12  1  0.28226000  0.37119300  0.96238600  1
  O  O13  1  0.26698800  0.39148500  0.45342700  1
  O  O14  1  0.31852000  0.61379700  0.20435500  1
  O  O15  1  0.17444600  0.12322400  0.71016100  1
  F  F16  1  0.74547500  0.11005900  0.53363800  1
  F  F17  1  0.72147000  0.88384300  0.80146200  1
  F  F18  1  0.77374500  0.37742200  0.28048800  1
  F  F19  1  0.77318300  0.61042200  0.03085900  1
  F  F20  1  0.20476100  0.63127700  0.71158800  1
  F  F21  1  0.24220300  0.86070800  0.96448300  1
  F  F22  1  0.28736400  0.10922000  0.21914800  1
  F  F23  1  0.23988200  0.90119100  0.46788600  1
