# generated using pymatgen
data_NiH20S2(NO7)2
_symmetry_space_group_name_H-M   'P 1'
_cell_length_a   12.80656700
_cell_length_b   6.54334200
_cell_length_c   9.13660418
_cell_angle_alpha   71.54218441
_cell_angle_beta   90.00000000
_cell_angle_gamma   90.00000000
_symmetry_Int_Tables_number   1
_chemical_formula_structural   NiH20S2(NO7)2
_chemical_formula_sum   'Ni2 H40 S4 N4 O28'
_cell_volume   726.24072247
_cell_formula_units_Z   2
loop_
 _symmetry_equiv_pos_site_id
 _symmetry_equiv_pos_as_xyz
  1  'x, y, z'
loop_
 _atom_site_type_symbol
 _atom_site_label
 _atom_site_symmetry_multiplicity
 _atom_site_fract_x
 _atom_site_fract_y
 _atom_site_fract_z
 _atom_site_occupancy
  Ni  Ni0  1  0.00000000  0.00000000  0.00000000  1
  Ni  Ni1  1  0.50000000  0.00000000  0.50000000  1
  H  H2  1  0.55209500  0.30659400  0.61209600  1
  H  H3  1  0.05209500  0.69340600  0.88790400  1
  H  H4  1  0.44790500  0.69340600  0.38790400  1
  H  H5  1  0.94790500  0.30659400  0.11209600  1
  H  H6  1  0.04595900  0.34857000  0.00985300  1
  H  H7  1  0.54595900  0.65143000  0.49014700  1
  H  H8  1  0.95404100  0.65143000  0.99014700  1
  H  H9  1  0.45404100  0.34857000  0.50985300  1
  H  H10  1  0.59002300  0.69409500  0.73170500  1
  H  H11  1  0.09002300  0.30590500  0.76829500  1
  H  H12  1  0.40997700  0.30590500  0.26829500  1
  H  H13  1  0.90997700  0.69409500  0.23170500  1
  H  H14  1  0.62560300  0.91485300  0.75684900  1
  H  H15  1  0.12560300  0.08514700  0.74315100  1
  H  H16  1  0.37439700  0.08514700  0.24315100  1
  H  H17  1  0.87439700  0.91485300  0.25684900  1
  H  H18  1  0.80897100  0.03311200  0.86222600  1
  H  H19  1  0.30897100  0.96688800  0.63777400  1
  H  H20  1  0.19102900  0.96688800  0.13777400  1
  H  H21  1  0.69102900  0.03311200  0.36222600  1
  H  H22  1  0.89608100  0.07988900  0.73069300  1
  H  H23  1  0.39608100  0.92011100  0.76930700  1
  H  H24  1  0.10391900  0.92011100  0.26930700  1
  H  H25  1  0.60391900  0.07988900  0.23069300  1
  H  H26  1  0.84704500  0.52727600  0.57750700  1
  H  H27  1  0.34704500  0.47272400  0.92249300  1
  H  H28  1  0.15295500  0.47272400  0.42249300  1
  H  H29  1  0.65295500  0.52727600  0.07750700  1
  H  H30  1  0.80366600  0.57982800  0.73500600  1
  H  H31  1  0.30366600  0.42017200  0.76499400  1
  H  H32  1  0.19633400  0.42017200  0.26499400  1
  H  H33  1  0.69633400  0.57982800  0.23500600  1
  H  H34  1  0.83302700  0.78630600  0.56842100  1
  H  H35  1  0.33302700  0.21369400  0.93157900  1
  H  H36  1  0.16697300  0.21369400  0.43157900  1
  H  H37  1  0.66697300  0.78630600  0.06842100  1
  H  H38  1  0.93067100  0.63631200  0.67531600  1
  H  H39  1  0.43067100  0.36368800  0.82468400  1
  H  H40  1  0.06932900  0.36368800  0.32468400  1
  H  H41  1  0.56932900  0.63631200  0.17531600  1
  S  S42  1  0.86169600  0.26495000  0.40450500  1
  S  S43  1  0.36169600  0.73505000  0.09549500  1
  S  S44  1  0.13830400  0.73505000  0.59549500  1
  S  S45  1  0.63830400  0.26495000  0.90450500  1
  N  N46  1  0.85314300  0.63395900  0.63977000  1
  N  N47  1  0.35314300  0.36604100  0.86023000  1
  N  N48  1  0.14685700  0.36604100  0.36023000  1
  N  N49  1  0.64685700  0.63395900  0.13977000  1
  O  O50  1  0.82258700  0.05682600  0.38662000  1
  O  O51  1  0.32258700  0.94317400  0.11338000  1
  O  O52  1  0.17741300  0.94317400  0.61338000  1
  O  O53  1  0.67741300  0.05682600  0.88662000  1
  O  O54  1  0.77385200  0.41209200  0.40467300  1
  O  O55  1  0.27385200  0.58790800  0.09532700  1
  O  O56  1  0.22614800  0.58790800  0.59532700  1
  O  O57  1  0.72614800  0.41209200  0.90467300  1
  O  O58  1  0.92389800  0.22141900  0.54808600  1
  O  O59  1  0.42389800  0.77858100  0.95191400  1
  O  O60  1  0.07610200  0.77858100  0.45191400  1
  O  O61  1  0.57610200  0.22141900  0.04808600  1
  O  O62  1  0.93269800  0.37367800  0.26958400  1
  O  O63  1  0.43269800  0.62632200  0.23041600  1
  O  O64  1  0.06730200  0.62632200  0.73041600  1
  O  O65  1  0.56730200  0.37367800  0.76958400  1
  O  O66  1  0.52629100  0.30014800  0.50968300  1
  O  O67  1  0.02629100  0.69985200  0.99031700  1
  O  O68  1  0.47370900  0.69985200  0.49031700  1
  O  O69  1  0.97370900  0.30014800  0.00968300  1
  O  O70  1  0.60698700  0.84606000  0.67799700  1
  O  O71  1  0.10698700  0.15394000  0.82200300  1
  O  O72  1  0.39301300  0.15394000  0.32200300  1
  O  O73  1  0.89301300  0.84606000  0.17799700  1
  O  O74  1  0.88200400  0.99845900  0.84115300  1
  O  O75  1  0.38200400  0.00154100  0.65884700  1
  O  O76  1  0.11799600  0.00154100  0.15884700  1
  O  O77  1  0.61799600  0.99845900  0.34115300  1
