# generated using pymatgen
data_NaTl3(SO3)2
_symmetry_space_group_name_H-M   'P 1'
_cell_length_a   5.99686661
_cell_length_b   5.99686661
_cell_length_c   7.22867500
_cell_angle_alpha   90.00000000
_cell_angle_beta   90.00000000
_cell_angle_gamma   120.00000670
_symmetry_Int_Tables_number   1
_chemical_formula_structural   NaTl3(SO3)2
_chemical_formula_sum   'Na1 Tl3 S2 O6'
_cell_volume   225.13244035
_cell_formula_units_Z   1
loop_
 _symmetry_equiv_pos_site_id
 _symmetry_equiv_pos_as_xyz
  1  'x, y, z'
loop_
 _atom_site_type_symbol
 _atom_site_label
 _atom_site_symmetry_multiplicity
 _atom_site_fract_x
 _atom_site_fract_y
 _atom_site_fract_z
 _atom_site_occupancy
  Na  Na0  1  0.00000000  0.00000000  0.50000000  1
  Tl  Tl1  1  0.66666700  0.33333300  0.31978500  1
  Tl  Tl2  1  0.33333300  0.66666700  0.68021500  1
  Tl  Tl3  1  0.00000000  0.00000000  0.00000000  1
  S  S4  1  0.33333300  0.66666700  0.21270300  1
  S  S5  1  0.66666700  0.33333300  0.78729700  1
  O  O6  1  0.39309000  0.19654500  0.70189700  1
  O  O7  1  0.80345500  0.19654500  0.70189700  1
  O  O8  1  0.80345500  0.60691000  0.70189700  1
  O  O9  1  0.19654500  0.80345500  0.29810300  1
  O  O10  1  0.60691000  0.80345500  0.29810300  1
  O  O11  1  0.19654500  0.39309000  0.29810300  1
