# generated using pymatgen
data_K3P
_symmetry_space_group_name_H-M   'P 1'
_cell_length_a   5.73953825
_cell_length_b   5.73953825
_cell_length_c   10.14723200
_cell_angle_alpha   90.00000000
_cell_angle_beta   90.00000000
_cell_angle_gamma   120.00000286
_symmetry_Int_Tables_number   1
_chemical_formula_structural   K3P
_chemical_formula_sum   'K6 P2'
_cell_volume   289.48903447
_cell_formula_units_Z   2
loop_
 _symmetry_equiv_pos_site_id
 _symmetry_equiv_pos_as_xyz
  1  'x, y, z'
loop_
 _atom_site_type_symbol
 _atom_site_label
 _atom_site_symmetry_multiplicity
 _atom_site_fract_x
 _atom_site_fract_y
 _atom_site_fract_z
 _atom_site_occupancy
  K  K0  1  0.33333300  0.66666700  0.57815100  1
  K  K1  1  0.66666700  0.33333300  0.07815100  1
  K  K2  1  0.66666700  0.33333300  0.42184900  1
  K  K3  1  0.33333300  0.66666700  0.92184900  1
  K  K4  1  0.00000000  0.00000000  0.75000000  1
  K  K5  1  0.00000000  0.00000000  0.25000000  1
  P  P6  1  0.66666700  0.33333300  0.75000000  1
  P  P7  1  0.33333300  0.66666700  0.25000000  1
