# generated using pymatgen
data_CdP4
_symmetry_space_group_name_H-M   'P 1'
_cell_length_a   5.20350800
_cell_length_b   5.33201900
_cell_length_c   7.70939483
_cell_angle_alpha   80.87836758
_cell_angle_beta   90.00000000
_cell_angle_gamma   90.00000000
_symmetry_Int_Tables_number   1
_chemical_formula_structural   CdP4
_chemical_formula_sum   'Cd2 P8'
_cell_volume   211.19377018
_cell_formula_units_Z   2
loop_
 _symmetry_equiv_pos_site_id
 _symmetry_equiv_pos_as_xyz
  1  'x, y, z'
loop_
 _atom_site_type_symbol
 _atom_site_label
 _atom_site_symmetry_multiplicity
 _atom_site_fract_x
 _atom_site_fract_y
 _atom_site_fract_z
 _atom_site_occupancy
  Cd  Cd0  1  0.50000000  0.00000000  0.50000000  1
  Cd  Cd1  1  0.00000000  0.00000000  0.00000000  1
  P  P2  1  0.60128700  0.39938600  0.89936800  1
  P  P3  1  0.10128700  0.60061400  0.60063200  1
  P  P4  1  0.28727600  0.26293600  0.74792500  1
  P  P5  1  0.78727600  0.73706400  0.75207500  1
  P  P6  1  0.71272400  0.73706400  0.25207500  1
  P  P7  1  0.21272400  0.26293600  0.24792500  1
  P  P8  1  0.89871300  0.39938600  0.39936800  1
  P  P9  1  0.39871300  0.60061400  0.10063200  1
