# generated using pymatgen
data_Ba4Li(SbO4)3
_symmetry_space_group_name_H-M   'P 1'
_cell_length_a   7.23019322
_cell_length_b   7.23019322
_cell_length_c   7.23019322
_cell_angle_alpha   109.47122063
_cell_angle_beta   109.47122063
_cell_angle_gamma   109.47122063
_symmetry_Int_Tables_number   1
_chemical_formula_structural   Ba4Li(SbO4)3
_chemical_formula_sum   'Ba4 Li1 Sb3 O12'
_cell_volume   290.95633620
_cell_formula_units_Z   1
loop_
 _symmetry_equiv_pos_site_id
 _symmetry_equiv_pos_as_xyz
  1  'x, y, z'
loop_
 _atom_site_type_symbol
 _atom_site_label
 _atom_site_symmetry_multiplicity
 _atom_site_fract_x
 _atom_site_fract_y
 _atom_site_fract_z
 _atom_site_occupancy
  Ba  Ba0  1  0.00000000  0.50000000  0.00000000  1
  Ba  Ba1  1  0.50000000  0.00000000  0.00000000  1
  Ba  Ba2  1  0.00000000  0.00000000  0.50000000  1
  Ba  Ba3  1  0.50000000  0.50000000  0.50000000  1
  Li  Li4  1  0.00000000  0.00000000  0.00000000  1
  Sb  Sb5  1  0.50000000  0.00000000  0.50000000  1
  Sb  Sb6  1  0.00000000  0.50000000  0.50000000  1
  Sb  Sb7  1  0.50000000  0.50000000  0.00000000  1
  O  O8  1  0.25000000  0.75000000  0.50000000  1
  O  O9  1  0.73137400  0.00000000  0.73137400  1
  O  O10  1  0.00000000  0.73137400  0.73137400  1
  O  O11  1  0.00000000  0.26862600  0.26862600  1
  O  O12  1  0.26862600  0.26862600  0.00000000  1
  O  O13  1  0.26862600  0.00000000  0.26862600  1
  O  O14  1  0.73137400  0.73137400  0.00000000  1
  O  O15  1  0.75000000  0.25000000  0.50000000  1
  O  O16  1  0.50000000  0.25000000  0.75000000  1
  O  O17  1  0.50000000  0.75000000  0.25000000  1
  O  O18  1  0.25000000  0.50000000  0.75000000  1
  O  O19  1  0.75000000  0.50000000  0.25000000  1
