# generated using pymatgen
data_Na2Zn2O3
_symmetry_space_group_name_H-M   'P 1'
_cell_length_a   5.96587300
_cell_length_b   5.90670300
_cell_length_c   6.03576709
_cell_angle_alpha   61.66275489
_cell_angle_beta   90.00000000
_cell_angle_gamma   90.00000000
_symmetry_Int_Tables_number   1
_chemical_formula_structural   Na2Zn2O3
_chemical_formula_sum   'Na4 Zn4 O6'
_cell_volume   187.20509852
_cell_formula_units_Z   2
loop_
 _symmetry_equiv_pos_site_id
 _symmetry_equiv_pos_as_xyz
  1  'x, y, z'
loop_
 _atom_site_type_symbol
 _atom_site_label
 _atom_site_symmetry_multiplicity
 _atom_site_fract_x
 _atom_site_fract_y
 _atom_site_fract_z
 _atom_site_occupancy
  Na  Na0  1  0.34509400  0.86380900  0.90369600  1
  Na  Na1  1  0.15490600  0.86380900  0.40369600  1
  Na  Na2  1  0.65490600  0.13619100  0.09630400  1
  Na  Na3  1  0.84509400  0.13619100  0.59630400  1
  Zn  Zn4  1  0.12164900  0.34108700  0.91993400  1
  Zn  Zn5  1  0.37835100  0.34108700  0.41993400  1
  Zn  Zn6  1  0.87835100  0.65891300  0.08006600  1
  Zn  Zn7  1  0.62164900  0.65891300  0.58006600  1
  O  O8  1  0.50000000  0.00000000  0.50000000  1
  O  O9  1  0.58956900  0.64222100  0.24638400  1
  O  O10  1  0.08956900  0.35777900  0.25361600  1
  O  O11  1  0.41043100  0.35777900  0.75361600  1
  O  O12  1  0.00000000  0.00000000  0.00000000  1
  O  O13  1  0.91043100  0.64222100  0.74638400  1
