# generated using pymatgen
data_SrPuO4
_symmetry_space_group_name_H-M   'P 1'
_cell_length_a   6.56728894
_cell_length_b   6.56728894
_cell_length_c   6.56728890
_cell_angle_alpha   35.01315561
_cell_angle_beta   35.01315561
_cell_angle_gamma   35.01315712
_symmetry_Int_Tables_number   1
_chemical_formula_structural   SrPuO4
_chemical_formula_sum   'Sr1 Pu1 O4'
_cell_volume   83.25856645
_cell_formula_units_Z   1
loop_
 _symmetry_equiv_pos_site_id
 _symmetry_equiv_pos_as_xyz
  1  'x, y, z'
loop_
 _atom_site_type_symbol
 _atom_site_label
 _atom_site_symmetry_multiplicity
 _atom_site_fract_x
 _atom_site_fract_y
 _atom_site_fract_z
 _atom_site_occupancy
  Sr  Sr0  1  0.50000000  0.50000000  0.50000000  1
  Pu  Pu1  1  0.00000000  0.00000000  0.00000000  1
  O  O2  1  0.64032800  0.64032800  0.64032800  1
  O  O3  1  0.35967200  0.35967200  0.35967200  1
  O  O4  1  0.10643700  0.10643700  0.10643700  1
  O  O5  1  0.89356300  0.89356300  0.89356300  1
