# generated using pymatgen
data_AgP2
_symmetry_space_group_name_H-M   'P 1'
_cell_length_a   5.11813700
_cell_length_b   6.25918600
_cell_length_c   7.89472458
_cell_angle_alpha   66.58043620
_cell_angle_beta   90.00000000
_cell_angle_gamma   90.00000000
_symmetry_Int_Tables_number   1
_chemical_formula_structural   AgP2
_chemical_formula_sum   'Ag4 P8'
_cell_volume   232.07541118
_cell_formula_units_Z   4
loop_
 _symmetry_equiv_pos_site_id
 _symmetry_equiv_pos_as_xyz
  1  'x, y, z'
loop_
 _atom_site_type_symbol
 _atom_site_label
 _atom_site_symmetry_multiplicity
 _atom_site_fract_x
 _atom_site_fract_y
 _atom_site_fract_z
 _atom_site_occupancy
  Ag  Ag0  1  0.95315800  0.14414600  0.09796500  1
  Ag  Ag1  1  0.45315800  0.85585400  0.40203500  1
  Ag  Ag2  1  0.04684200  0.85585400  0.90203500  1
  Ag  Ag3  1  0.54684200  0.14414600  0.59796500  1
  P  P4  1  0.59356800  0.41095400  0.91600200  1
  P  P5  1  0.09356800  0.58904600  0.58399800  1
  P  P6  1  0.40643200  0.58904600  0.08399800  1
  P  P7  1  0.90643200  0.41095400  0.41600200  1
  P  P8  1  0.23186100  0.27672800  0.30042300  1
  P  P9  1  0.73186100  0.72327200  0.19957700  1
  P  P10  1  0.76813900  0.72327200  0.69957700  1
  P  P11  1  0.26813900  0.27672800  0.80042300  1
