# generated using pymatgen
data_AgNO3
_symmetry_space_group_name_H-M   'P 1'
_cell_length_a   4.15183639
_cell_length_b   4.15183639
_cell_length_c   4.15183604
_cell_angle_alpha   77.22416012
_cell_angle_beta   77.22416012
_cell_angle_gamma   77.22415774
_symmetry_Int_Tables_number   1
_chemical_formula_structural   AgNO3
_chemical_formula_sum   'Ag1 N1 O3'
_cell_volume   66.94305711
_cell_formula_units_Z   1
loop_
 _symmetry_equiv_pos_site_id
 _symmetry_equiv_pos_as_xyz
  1  'x, y, z'
loop_
 _atom_site_type_symbol
 _atom_site_label
 _atom_site_symmetry_multiplicity
 _atom_site_fract_x
 _atom_site_fract_y
 _atom_site_fract_z
 _atom_site_occupancy
  Ag  Ag0  1  0.99804000  0.99804000  0.99804000  1
  N  N1  1  0.57411700  0.57411700  0.57411700  1
  O  O2  1  0.43488100  0.85948100  0.43488100  1
  O  O3  1  0.43488100  0.43488100  0.85948100  1
  O  O4  1  0.85948100  0.43488100  0.43488100  1
