# generated using pymatgen
data_Sr(ZnP)2
_symmetry_space_group_name_H-M   'P 1'
_cell_length_a   4.11474414
_cell_length_b   4.11474414
_cell_length_c   7.12969100
_cell_angle_alpha   90.00000000
_cell_angle_beta   90.00000000
_cell_angle_gamma   120.00000231
_symmetry_Int_Tables_number   1
_chemical_formula_structural   Sr(ZnP)2
_chemical_formula_sum   'Sr1 Zn2 P2'
_cell_volume   104.54108451
_cell_formula_units_Z   1
loop_
 _symmetry_equiv_pos_site_id
 _symmetry_equiv_pos_as_xyz
  1  'x, y, z'
loop_
 _atom_site_type_symbol
 _atom_site_label
 _atom_site_symmetry_multiplicity
 _atom_site_fract_x
 _atom_site_fract_y
 _atom_site_fract_z
 _atom_site_occupancy
  Sr  Sr0  1  0.00000000  0.00000000  0.00000000  1
  Zn  Zn1  1  0.66666700  0.33333300  0.37034300  1
  Zn  Zn2  1  0.33333300  0.66666700  0.62965700  1
  P  P3  1  0.66666700  0.33333300  0.72575700  1
  P  P4  1  0.33333300  0.66666700  0.27424300  1
