# generated using pymatgen
data_BaTiF6
_symmetry_space_group_name_H-M   'P 1'
_cell_length_a   4.99362902
_cell_length_b   4.99362902
_cell_length_c   4.99362893
_cell_angle_alpha   97.96154741
_cell_angle_beta   97.96154741
_cell_angle_gamma   97.96154348
_symmetry_Int_Tables_number   1
_chemical_formula_structural   BaTiF6
_chemical_formula_sum   'Ba1 Ti1 F6'
_cell_volume   120.54498535
_cell_formula_units_Z   1
loop_
 _symmetry_equiv_pos_site_id
 _symmetry_equiv_pos_as_xyz
  1  'x, y, z'
loop_
 _atom_site_type_symbol
 _atom_site_label
 _atom_site_symmetry_multiplicity
 _atom_site_fract_x
 _atom_site_fract_y
 _atom_site_fract_z
 _atom_site_occupancy
  Ba  Ba0  1  0.00000000  0.00000000  0.00000000  1
  Ti  Ti1  1  0.50000000  0.50000000  0.50000000  1
  F  F2  1  0.77076700  0.42356900  0.77076700  1
  F  F3  1  0.77076700  0.77076700  0.42356900  1
  F  F4  1  0.22923300  0.57643100  0.22923300  1
  F  F5  1  0.57643100  0.22923300  0.22923300  1
  F  F6  1  0.22923300  0.22923300  0.57643100  1
  F  F7  1  0.42356900  0.77076700  0.77076700  1
