# generated using pymatgen
data_Rb7NaGe8
_symmetry_space_group_name_H-M   'P 1'
_cell_length_a   13.36431300
_cell_length_b   13.36431300
_cell_length_c   13.36431300
_cell_angle_alpha   90.00000000
_cell_angle_beta   90.00000000
_cell_angle_gamma   90.00000000
_symmetry_Int_Tables_number   1
_chemical_formula_structural   Rb7NaGe8
_chemical_formula_sum   'Rb28 Na4 Ge32'
_cell_volume   2386.93127858
_cell_formula_units_Z   4
loop_
 _symmetry_equiv_pos_site_id
 _symmetry_equiv_pos_as_xyz
  1  'x, y, z'
loop_
 _atom_site_type_symbol
 _atom_site_label
 _atom_site_symmetry_multiplicity
 _atom_site_fract_x
 _atom_site_fract_y
 _atom_site_fract_z
 _atom_site_occupancy
  Rb  Rb0  1  0.81324400  0.45853000  0.77290500  1
  Rb  Rb1  1  0.77290500  0.81324400  0.45853000  1
  Rb  Rb2  1  0.18675600  0.95853000  0.72709500  1
  Rb  Rb3  1  0.68675600  0.54147000  0.27290500  1
  Rb  Rb4  1  0.72709500  0.18675600  0.95853000  1
  Rb  Rb5  1  0.54147000  0.27290500  0.68675600  1
  Rb  Rb6  1  0.95853000  0.72709500  0.18675600  1
  Rb  Rb7  1  0.45853000  0.77290500  0.81324400  1
  Rb  Rb8  1  0.95853000  0.77290500  0.68675600  1
  Rb  Rb9  1  0.68675600  0.95853000  0.77290500  1
  Rb  Rb10  1  0.77290500  0.68675600  0.95853000  1
  Rb  Rb11  1  0.72709500  0.31324400  0.45853000  1
  Rb  Rb12  1  0.27290500  0.68675600  0.54147000  1
  Rb  Rb13  1  0.22709500  0.18675600  0.54147000  1
  Rb  Rb14  1  0.81324400  0.04147000  0.27290500  1
  Rb  Rb15  1  0.31324400  0.45853000  0.72709500  1
  Rb  Rb16  1  0.27290500  0.81324400  0.04147000  1
  Rb  Rb17  1  0.45853000  0.72709500  0.31324400  1
  Rb  Rb18  1  0.04147000  0.27290500  0.81324400  1
  Rb  Rb19  1  0.54147000  0.22709500  0.18675600  1
  Rb  Rb20  1  0.00000000  0.00000000  0.00000000  1
  Rb  Rb21  1  0.50000000  0.00000000  0.50000000  1
  Rb  Rb22  1  0.50000000  0.50000000  0.00000000  1
  Rb  Rb23  1  0.00000000  0.50000000  0.50000000  1
  Rb  Rb24  1  0.22709500  0.31324400  0.04147000  1
  Rb  Rb25  1  0.31324400  0.04147000  0.22709500  1
  Rb  Rb26  1  0.04147000  0.22709500  0.31324400  1
  Rb  Rb27  1  0.18675600  0.54147000  0.22709500  1
  Na  Na28  1  0.50000000  0.00000000  0.00000000  1
  Na  Na29  1  0.00000000  0.50000000  0.00000000  1
  Na  Na30  1  0.00000000  0.00000000  0.50000000  1
  Na  Na31  1  0.50000000  0.50000000  0.50000000  1
  Ge  Ge32  1  0.70138000  0.70138000  0.70138000  1
  Ge  Ge33  1  0.79862000  0.29862000  0.20138000  1
  Ge  Ge34  1  0.20138000  0.79862000  0.29862000  1
  Ge  Ge35  1  0.29862000  0.20138000  0.79862000  1
  Ge  Ge36  1  0.20537900  0.92572000  0.44324000  1
  Ge  Ge37  1  0.44324000  0.20537900  0.92572000  1
  Ge  Ge38  1  0.92572000  0.44324000  0.20537900  1
  Ge  Ge39  1  0.57428000  0.55676000  0.70537900  1
  Ge  Ge40  1  0.94324000  0.29462100  0.07428000  1
  Ge  Ge41  1  0.07428000  0.94324000  0.29462100  1
  Ge  Ge42  1  0.05676000  0.79462100  0.42572000  1
  Ge  Ge43  1  0.55676000  0.70537900  0.57428000  1
  Ge  Ge44  1  0.42572000  0.05676000  0.79462100  1
  Ge  Ge45  1  0.70138000  0.79862000  0.20138000  1
  Ge  Ge46  1  0.79462100  0.42572000  0.05676000  1
  Ge  Ge47  1  0.29462100  0.07428000  0.94324000  1
  Ge  Ge48  1  0.79462100  0.07428000  0.55676000  1
  Ge  Ge49  1  0.55676000  0.79462100  0.07428000  1
  Ge  Ge50  1  0.07428000  0.55676000  0.79462100  1
  Ge  Ge51  1  0.42572000  0.44324000  0.29462100  1
  Ge  Ge52  1  0.05676000  0.70537900  0.92572000  1
  Ge  Ge53  1  0.92572000  0.05676000  0.70537900  1
  Ge  Ge54  1  0.94324000  0.20537900  0.57428000  1
  Ge  Ge55  1  0.44324000  0.29462100  0.42572000  1
  Ge  Ge56  1  0.57428000  0.94324000  0.20537900  1
  Ge  Ge57  1  0.29462100  0.42572000  0.44324000  1
  Ge  Ge58  1  0.20537900  0.57428000  0.94324000  1
  Ge  Ge59  1  0.70537900  0.92572000  0.05676000  1
  Ge  Ge60  1  0.79862000  0.20138000  0.70138000  1
  Ge  Ge61  1  0.20138000  0.70138000  0.79862000  1
  Ge  Ge62  1  0.70537900  0.57428000  0.55676000  1
  Ge  Ge63  1  0.29862000  0.29862000  0.29862000  1
