# generated using pymatgen
data_KAlSiO4
_symmetry_space_group_name_H-M   'P 1'
_cell_length_a   5.22899878
_cell_length_b   5.22899878
_cell_length_c   8.85985300
_cell_angle_alpha   90.00000000
_cell_angle_beta   90.00000000
_cell_angle_gamma   120.00000981
_symmetry_Int_Tables_number   1
_chemical_formula_structural   KAlSiO4
_chemical_formula_sum   'K2 Al2 Si2 O8'
_cell_volume   209.79454194
_cell_formula_units_Z   2
loop_
 _symmetry_equiv_pos_site_id
 _symmetry_equiv_pos_as_xyz
  1  'x, y, z'
loop_
 _atom_site_type_symbol
 _atom_site_label
 _atom_site_symmetry_multiplicity
 _atom_site_fract_x
 _atom_site_fract_y
 _atom_site_fract_z
 _atom_site_occupancy
  K  K0  1  0.00000000  0.00000000  0.24314400  1
  K  K1  1  0.00000000  0.00000000  0.74314400  1
  Al  Al2  1  0.66666700  0.33333300  0.54953300  1
  Al  Al3  1  0.33333300  0.66666700  0.04953300  1
  Si  Si4  1  0.33333300  0.66666700  0.43158400  1
  Si  Si5  1  0.66666700  0.33333300  0.93158400  1
  O  O6  1  0.38189000  0.98549600  0.48971000  1
  O  O7  1  0.39639400  0.38189000  0.98971000  1
  O  O8  1  0.98549600  0.60360600  0.98971000  1
  O  O9  1  0.01450400  0.39639400  0.48971000  1
  O  O10  1  0.60360600  0.61811000  0.48971000  1
  O  O11  1  0.61811000  0.01450400  0.98971000  1
  O  O12  1  0.33333300  0.66666700  0.24720800  1
  O  O13  1  0.66666700  0.33333300  0.74720800  1
