# generated using pymatgen
data_Li3LaSb2
_symmetry_space_group_name_H-M   'P 1'
_cell_length_a   4.64643410
_cell_length_b   4.64643410
_cell_length_c   7.45432200
_cell_angle_alpha   90.00000000
_cell_angle_beta   90.00000000
_cell_angle_gamma   120.00000147
_symmetry_Int_Tables_number   1
_chemical_formula_structural   Li3LaSb2
_chemical_formula_sum   'Li3 La1 Sb2'
_cell_volume   139.37290059
_cell_formula_units_Z   1
loop_
 _symmetry_equiv_pos_site_id
 _symmetry_equiv_pos_as_xyz
  1  'x, y, z'
loop_
 _atom_site_type_symbol
 _atom_site_label
 _atom_site_symmetry_multiplicity
 _atom_site_fract_x
 _atom_site_fract_y
 _atom_site_fract_z
 _atom_site_occupancy
  Li  Li0  1  0.00000000  0.00000000  0.50000000  1
  Li  Li1  1  0.66666700  0.33333300  0.35695600  1
  Li  Li2  1  0.33333300  0.66666700  0.64304400  1
  La  La3  1  0.00000000  0.00000000  0.00000000  1
  Sb  Sb4  1  0.33333300  0.66666700  0.25765000  1
  Sb  Sb5  1  0.66666700  0.33333300  0.74235000  1
