# generated using pymatgen
data_VO2
_symmetry_space_group_name_H-M   'P 1'
_cell_length_a   5.36548800
_cell_length_b   5.41688562
_cell_length_c   7.23922830
_cell_angle_alpha   82.60266059
_cell_angle_beta   109.86287365
_cell_angle_gamma   117.01317051
_symmetry_Int_Tables_number   1
_chemical_formula_structural   VO2
_chemical_formula_sum   'V5 O10'
_cell_volume   176.21445535
_cell_formula_units_Z   5
loop_
 _symmetry_equiv_pos_site_id
 _symmetry_equiv_pos_as_xyz
  1  'x, y, z'
loop_
 _atom_site_type_symbol
 _atom_site_label
 _atom_site_symmetry_multiplicity
 _atom_site_fract_x
 _atom_site_fract_y
 _atom_site_fract_z
 _atom_site_occupancy
  V  V0  1  0.78732700  0.99843300  0.11065600  1
  V  V1  1  0.59021200  0.50781500  0.72037800  1
  V  V2  1  0.40978800  0.49218500  0.27962200  1
  V  V3  1  0.00000000  0.50000000  0.50000000  1
  V  V4  1  0.21267300  0.00156700  0.88934400  1
  O  O5  1  0.19159500  0.31109400  0.71461400  1
  O  O6  1  0.61761100  0.21100300  0.90835600  1
  O  O7  1  0.22001200  0.20681000  0.10469600  1
  O  O8  1  0.58943400  0.31765500  0.51351500  1
  O  O9  1  0.94196900  0.25990800  0.30720600  1
  O  O10  1  0.77998800  0.79319000  0.89530400  1
  O  O11  1  0.80840500  0.68890600  0.28538600  1
  O  O12  1  0.05803100  0.74009200  0.69279400  1
  O  O13  1  0.38238900  0.78899700  0.09164400  1
  O  O14  1  0.41056600  0.68234500  0.48648500  1
