# generated using pymatgen
data_YNb2NO5
_symmetry_space_group_name_H-M   'P 1'
_cell_length_a   5.29224400
_cell_length_b   5.85005915
_cell_length_c   15.03833972
_cell_angle_alpha   89.93021765
_cell_angle_beta   89.98328181
_cell_angle_gamma   89.21136788
_symmetry_Int_Tables_number   1
_chemical_formula_structural   YNb2NO5
_chemical_formula_sum   'Y4 Nb8 N4 O20'
_cell_volume   465.54163628
_cell_formula_units_Z   4
loop_
 _symmetry_equiv_pos_site_id
 _symmetry_equiv_pos_as_xyz
  1  'x, y, z'
loop_
 _atom_site_type_symbol
 _atom_site_label
 _atom_site_symmetry_multiplicity
 _atom_site_fract_x
 _atom_site_fract_y
 _atom_site_fract_z
 _atom_site_occupancy
  Y  Y0  1  0.26439200  0.28650100  0.99595000  1
  Y  Y1  1  0.73753200  0.71949000  0.00066400  1
  Y  Y2  1  0.74014400  0.21643300  0.50163300  1
  Y  Y3  1  0.26414500  0.77893300  0.50267300  1
  Nb  Nb4  1  0.72837200  0.19271700  0.82543100  1
  Nb  Nb5  1  0.20770400  0.81703700  0.83225800  1
  Nb  Nb6  1  0.20679400  0.31644100  0.66552500  1
  Nb  Nb7  1  0.72794600  0.69270100  0.67335300  1
  Nb  Nb8  1  0.28222800  0.31074700  0.33062400  1
  Nb  Nb9  1  0.79289900  0.68124200  0.33543600  1
  Nb  Nb10  1  0.76865300  0.17907700  0.15987800  1
  Nb  Nb11  1  0.29653200  0.80736300  0.16231600  1
  N  N12  1  0.89600300  0.88702600  0.75486000  1
  N  N13  1  0.89249200  0.38548700  0.74058000  1
  N  N14  1  0.48276600  0.06914600  0.09824500  1
  N  N15  1  0.40542200  0.59140500  0.08407800  1
  O  O16  1  0.09003700  0.60605200  0.91480500  1
  O  O17  1  0.59884100  0.40093900  0.91303400  1
  O  O18  1  0.01161900  0.08101900  0.90415700  1
  O  O19  1  0.50216100  0.92884400  0.90182900  1
  O  O20  1  0.39594200  0.13973500  0.75420400  1
  O  O21  1  0.39471100  0.63834000  0.74258500  1
  O  O22  1  0.49607400  0.43177500  0.59309200  1
  O  O23  1  0.01125900  0.58229700  0.59382200  1
  O  O24  1  0.09381200  0.10385700  0.58179100  1
  O  O25  1  0.59753800  0.89939700  0.58283500  1
  O  O26  1  0.40414800  0.10052600  0.41718400  1
  O  O27  1  0.90728600  0.89295300  0.41894000  1
  O  O28  1  0.99289500  0.41721300  0.40746300  1
  O  O29  1  0.49800800  0.57100600  0.40569100  1
  O  O30  1  0.60671000  0.36339500  0.25970300  1
  O  O31  1  0.11231700  0.62290400  0.26422100  1
  O  O32  1  0.09712500  0.13367100  0.25035100  1
  O  O33  1  0.61326300  0.85839200  0.24854300  1
  O  O34  1  0.97487900  0.90879200  0.10288000  1
  O  O35  1  0.90735100  0.38714100  0.07936200  1
