# generated using pymatgen
data_V2O5
_symmetry_space_group_name_H-M   'P 1'
_cell_length_a   4.91047400
_cell_length_b   15.33652600
_cell_length_c   21.05991678
_cell_angle_alpha   71.49117704
_cell_angle_beta   90.00000000
_cell_angle_gamma   90.00000000
_symmetry_Int_Tables_number   1
_chemical_formula_structural   V2O5
_chemical_formula_sum   'V28 O70'
_cell_volume   1503.97723715
_cell_formula_units_Z   14
loop_
 _symmetry_equiv_pos_site_id
 _symmetry_equiv_pos_as_xyz
  1  'x, y, z'
loop_
 _atom_site_type_symbol
 _atom_site_label
 _atom_site_symmetry_multiplicity
 _atom_site_fract_x
 _atom_site_fract_y
 _atom_site_fract_z
 _atom_site_occupancy
  V  V0  1  0.07405300  0.93409400  0.65488600  1
  V  V1  1  0.07997600  0.85615300  0.81794000  1
  V  V2  1  0.88973500  0.90598100  0.51885600  1
  V  V3  1  0.08859600  0.70082000  0.97177600  1
  V  V4  1  0.92594700  0.93409400  0.15488600  1
  V  V5  1  0.92002400  0.85615300  0.31794000  1
  V  V6  1  0.08235700  0.72024700  0.61151500  1
  V  V7  1  0.15332600  0.59617300  0.76878900  1
  V  V8  1  0.11026500  0.90598100  0.01885600  1
  V  V9  1  0.91140400  0.70082000  0.47177600  1
  V  V10  1  0.08423700  0.49117600  0.93003000  1
  V  V11  1  0.91764300  0.72024700  0.11151500  1
  V  V12  1  0.08423700  0.50882400  0.56997000  1
  V  V13  1  0.15332600  0.40382700  0.73121100  1
  V  V14  1  0.84667400  0.59617300  0.26878900  1
  V  V15  1  0.91576300  0.49117600  0.43003000  1
  V  V16  1  0.08235700  0.27975300  0.88848500  1
  V  V17  1  0.91576300  0.50882400  0.06997000  1
  V  V18  1  0.08859600  0.29918000  0.52822400  1
  V  V19  1  0.88973500  0.09401900  0.98114400  1
  V  V20  1  0.84667400  0.40382700  0.23121100  1
  V  V21  1  0.91764300  0.27975300  0.38848500  1
  V  V22  1  0.07997600  0.14384700  0.68206000  1
  V  V23  1  0.07405300  0.06590600  0.84511400  1
  V  V24  1  0.91140400  0.29918000  0.02822400  1
  V  V25  1  0.11026500  0.09401900  0.48114400  1
  V  V26  1  0.92002400  0.14384700  0.18206000  1
  V  V27  1  0.92594700  0.06590600  0.34511400  1
  O  O28  1  0.97640900  0.99540900  0.94315800  1
  O  O29  1  0.96658800  0.96074000  0.82918100  1
  O  O30  1  0.40108500  0.93757300  0.65445000  1
  O  O31  1  0.40854700  0.85840600  0.82007200  1
  O  O32  1  0.02359100  0.99540900  0.44315800  1
  O  O33  1  0.98035200  0.85436800  0.73593300  1
  O  O34  1  0.96713600  0.75993900  0.88929300  1
  O  O35  1  0.41523000  0.70574800  0.96723800  1
  O  O36  1  0.56455700  0.90302900  0.51071400  1
  O  O37  1  0.97670600  0.83973800  0.61208800  1
  O  O38  1  0.03341200  0.96074000  0.32918100  1
  O  O39  1  0.01291200  0.79409000  0.51147100  1
  O  O40  1  0.98874200  0.58089100  0.97159200  1
  O  O41  1  0.38389800  0.66412500  0.78050500  1
  O  O42  1  0.59891500  0.93757300  0.15445000  1
  O  O43  1  0.59145300  0.85840600  0.32007200  1
  O  O44  1  0.40829300  0.71522600  0.61862100  1
  O  O45  1  0.95935900  0.65749100  0.69478100  1
  O  O46  1  0.01964800  0.85436800  0.23593300  1
  O  O47  1  0.03286400  0.75993900  0.38929300  1
  O  O48  1  0.96123100  0.55123900  0.84605600  1
  O  O49  1  0.58477000  0.70574800  0.46723800  1
  O  O50  1  0.41025800  0.49675500  0.92317000  1
  O  O51  1  0.43544300  0.90302900  0.01071400  1
  O  O52  1  0.02329400  0.83973800  0.11208800  1
  O  O53  1  0.99093100  0.62990100  0.57009000  1
  O  O54  1  0.31073900  0.50000000  0.75000000  1
  O  O55  1  0.98708800  0.79409000  0.01147100  1
  O  O56  1  0.01125800  0.58089100  0.47159200  1
  O  O57  1  0.61610200  0.66412500  0.28050500  1
  O  O58  1  0.99093100  0.37009900  0.92991000  1
  O  O59  1  0.59170700  0.71522600  0.11862100  1
  O  O60  1  0.41025800  0.50324500  0.57683000  1
  O  O61  1  0.96123100  0.44876100  0.65394400  1
  O  O62  1  0.04064100  0.65749100  0.19478100  1
  O  O63  1  0.95935900  0.34250900  0.80521900  1
  O  O64  1  0.03876900  0.55123900  0.34605600  1
  O  O65  1  0.58974200  0.49675500  0.42317000  1
  O  O66  1  0.40829300  0.28477400  0.88137900  1
  O  O67  1  0.00906900  0.62990100  0.07009000  1
  O  O68  1  0.38389800  0.33587500  0.71949500  1
  O  O69  1  0.98874200  0.41910900  0.52840800  1
  O  O70  1  0.01291200  0.20591000  0.98852900  1
  O  O71  1  0.68926100  0.50000000  0.25000000  1
  O  O72  1  0.00906900  0.37009900  0.42991000  1
  O  O73  1  0.97670600  0.16026200  0.88791200  1
  O  O74  1  0.56455700  0.09697100  0.98928600  1
  O  O75  1  0.58974200  0.50324500  0.07683000  1
  O  O76  1  0.41523000  0.29425200  0.53276200  1
  O  O77  1  0.03876900  0.44876100  0.15394400  1
  O  O78  1  0.96713600  0.24006100  0.61070700  1
  O  O79  1  0.98035200  0.14563200  0.76406700  1
  O  O80  1  0.04064100  0.34250900  0.30521900  1
  O  O81  1  0.59170700  0.28477400  0.38137900  1
  O  O82  1  0.40854700  0.14159400  0.67992800  1
  O  O83  1  0.40108500  0.06242700  0.84555000  1
  O  O84  1  0.61610200  0.33587500  0.21949500  1
  O  O85  1  0.01125800  0.41910900  0.02840800  1
  O  O86  1  0.98708800  0.20591000  0.48852900  1
  O  O87  1  0.96658800  0.03926000  0.67081900  1
  O  O88  1  0.02329400  0.16026200  0.38791200  1
  O  O89  1  0.43544300  0.09697100  0.48928600  1
  O  O90  1  0.58477000  0.29425200  0.03276200  1
  O  O91  1  0.03286400  0.24006100  0.11070700  1
  O  O92  1  0.01964800  0.14563200  0.26406700  1
  O  O93  1  0.97640900  0.00459100  0.55684200  1
  O  O94  1  0.59145300  0.14159400  0.17992800  1
  O  O95  1  0.59891500  0.06242700  0.34555000  1
  O  O96  1  0.03341200  0.03926000  0.17081900  1
  O  O97  1  0.02359100  0.00459100  0.05684200  1
