# generated using pymatgen
data_La2Nb2N2O5
_symmetry_space_group_name_H-M   'P 1'
_cell_length_a   5.73433700
_cell_length_b   8.02207207
_cell_length_c   13.77037529
_cell_angle_alpha   98.40043305
_cell_angle_beta   90.47133243
_cell_angle_gamma   90.04116803
_symmetry_Int_Tables_number   1
_chemical_formula_structural   La2Nb2N2O5
_chemical_formula_sum   'La8 Nb8 N8 O20'
_cell_volume   626.63610407
_cell_formula_units_Z   4
loop_
 _symmetry_equiv_pos_site_id
 _symmetry_equiv_pos_as_xyz
  1  'x, y, z'
loop_
 _atom_site_type_symbol
 _atom_site_label
 _atom_site_symmetry_multiplicity
 _atom_site_fract_x
 _atom_site_fract_y
 _atom_site_fract_z
 _atom_site_occupancy
  La  La0  1  0.34468000  0.13302400  0.56877300  1
  La  La1  1  0.76309100  0.21564200  0.91178200  1
  La  La2  1  0.25095300  0.27380200  0.12299100  1
  La  La3  1  0.77276900  0.34085400  0.38330100  1
  La  La4  1  0.28318200  0.66523400  0.60796800  1
  La  La5  1  0.75037200  0.73222300  0.88308100  1
  La  La6  1  0.26421100  0.78043100  0.09500600  1
  La  La7  1  0.83366300  0.86221000  0.43019800  1
  Nb  Nb8  1  0.29439400  0.07040800  0.32186300  1
  Nb  Nb9  1  0.74207600  0.02305100  0.11729800  1
  Nb  Nb10  1  0.79169900  0.41396800  0.67552500  1
  Nb  Nb11  1  0.26361500  0.47254700  0.88249100  1
  Nb  Nb12  1  0.76746000  0.53609800  0.11838000  1
  Nb  Nb13  1  0.28199500  0.59768600  0.32457500  1
  Nb  Nb14  1  0.25887400  0.96922100  0.88311500  1
  Nb  Nb15  1  0.79474400  0.92505500  0.67568000  1
  N  N16  1  0.54994000  0.08734400  0.40986100  1
  N  N17  1  0.45039300  0.02603900  0.18488800  1
  N  N18  1  0.53405400  0.96199000  0.98159800  1
  N  N19  1  0.56117000  0.87043900  0.57340900  1
  N  N20  1  0.81724700  0.77089400  0.10589300  1
  N  N21  1  0.19405100  0.82196900  0.30343700  1
  N  N22  1  0.94395300  0.97469600  0.82119400  1
  N  N23  1  0.05047100  0.91691900  0.59044500  1
  O  O24  1  0.68659500  0.18201500  0.69717200  1
  O  O25  1  0.31991900  0.22771500  0.88729900  1
  O  O26  1  0.05892300  0.13461500  0.42796400  1
  O  O27  1  0.04394300  0.04842600  0.01896400  1
  O  O28  1  0.95578400  0.12524400  0.22261900  1
  O  O29  1  0.07404200  0.37375400  0.61381300  1
  O  O30  1  0.94455900  0.43121100  0.82042300  1
  O  O31  1  0.67206700  0.27543700  0.08489500  1
  O  O32  1  0.34864400  0.32825000  0.30211800  1
  O  O33  1  0.58606000  0.41266300  0.56348900  1
  O  O34  1  0.52257400  0.53356500  0.97897700  1
  O  O35  1  0.45335300  0.50052500  0.77476400  1
  O  O36  1  0.96081200  0.49882100  0.22725100  1
  O  O37  1  0.02964100  0.45962200  0.01907000  1
  O  O38  1  0.08274500  0.58559400  0.43789500  1
  O  O39  1  0.84461400  0.66557100  0.69681000  1
  O  O40  1  0.17065600  0.72180300  0.91271700  1
  O  O41  1  0.44501600  0.56243800  0.17809600  1
  O  O42  1  0.57770500  0.61901500  0.38652000  1
  O  O43  1  0.44827100  0.87197700  0.77638800  1
