# generated using pymatgen
data_Na3NiO3
_symmetry_space_group_name_H-M   'P 1'
_cell_length_a   9.18631600
_cell_length_b   9.18631600
_cell_length_c   4.45453800
_cell_angle_alpha   90.00000000
_cell_angle_beta   90.00000000
_cell_angle_gamma   90.00000000
_symmetry_Int_Tables_number   1
_chemical_formula_structural   Na3NiO3
_chemical_formula_sum   'Na12 Ni4 O12'
_cell_volume   375.91134192
_cell_formula_units_Z   4
loop_
 _symmetry_equiv_pos_site_id
 _symmetry_equiv_pos_as_xyz
  1  'x, y, z'
loop_
 _atom_site_type_symbol
 _atom_site_label
 _atom_site_symmetry_multiplicity
 _atom_site_fract_x
 _atom_site_fract_y
 _atom_site_fract_z
 _atom_site_occupancy
  Na  Na0  1  0.62661300  0.12945700  0.00000000  1
  Na  Na1  1  0.37054300  0.12661300  0.50000000  1
  Na  Na2  1  0.85102400  0.14897600  0.50000000  1
  Na  Na3  1  0.35102400  0.35102400  0.00000000  1
  Na  Na4  1  0.87054300  0.37338700  0.00000000  1
  Na  Na5  1  0.12661300  0.37054300  0.50000000  1
  Na  Na6  1  0.87338700  0.62945700  0.50000000  1
  Na  Na7  1  0.12945700  0.62661300  0.00000000  1
  Na  Na8  1  0.64897600  0.64897600  0.00000000  1
  Na  Na9  1  0.14897600  0.85102400  0.50000000  1
  Na  Na10  1  0.62945700  0.87338700  0.50000000  1
  Na  Na11  1  0.37338700  0.87054300  0.00000000  1
  Ni  Ni12  1  0.10886500  0.10886500  0.00000000  1
  Ni  Ni13  1  0.60886500  0.39113500  0.50000000  1
  Ni  Ni14  1  0.39113500  0.60886500  0.50000000  1
  Ni  Ni15  1  0.89113500  0.89113500  0.00000000  1
  O  O16  1  0.90678400  0.09321600  0.00000000  1
  O  O17  1  0.30760500  0.10538800  0.00000000  1
  O  O18  1  0.60538800  0.19239500  0.50000000  1
  O  O19  1  0.10538800  0.30760500  0.00000000  1
  O  O20  1  0.80760500  0.39461200  0.50000000  1
  O  O21  1  0.40678400  0.40678400  0.50000000  1
  O  O22  1  0.59321600  0.59321600  0.50000000  1
  O  O23  1  0.19239500  0.60538800  0.50000000  1
  O  O24  1  0.89461200  0.69239500  0.00000000  1
  O  O25  1  0.39461200  0.80760500  0.50000000  1
  O  O26  1  0.69239500  0.89461200  0.00000000  1
  O  O27  1  0.09321600  0.90678400  0.00000000  1
