# generated using pymatgen
data_LiRhO2
_symmetry_space_group_name_H-M   'P 1'
_cell_length_a   6.08795180
_cell_length_b   6.08795180
_cell_length_c   6.08795180
_cell_angle_alpha   60.00000000
_cell_angle_beta   60.00000000
_cell_angle_gamma   60.00000000
_symmetry_Int_Tables_number   1
_chemical_formula_structural   LiRhO2
_chemical_formula_sum   'Li4 Rh4 O8'
_cell_volume   159.55066469
_cell_formula_units_Z   4
loop_
 _symmetry_equiv_pos_site_id
 _symmetry_equiv_pos_as_xyz
  1  'x, y, z'
loop_
 _atom_site_type_symbol
 _atom_site_label
 _atom_site_symmetry_multiplicity
 _atom_site_fract_x
 _atom_site_fract_y
 _atom_site_fract_z
 _atom_site_occupancy
  Li  Li0  1  0.12500000  0.12500000  0.62500000  1
  Li  Li1  1  0.12500000  0.12500000  0.12500000  1
  Li  Li2  1  0.62500000  0.12500000  0.12500000  1
  Li  Li3  1  0.12500000  0.62500000  0.12500000  1
  Rh  Rh4  1  0.62500000  0.62500000  0.62500000  1
  Rh  Rh5  1  0.12500000  0.62500000  0.62500000  1
  Rh  Rh6  1  0.62500000  0.62500000  0.12500000  1
  Rh  Rh7  1  0.62500000  0.12500000  0.62500000  1
  O  O8  1  0.39777600  0.86740800  0.86740800  1
  O  O9  1  0.38259200  0.85222400  0.38259200  1
  O  O10  1  0.86740800  0.86740800  0.86740800  1
  O  O11  1  0.86740800  0.86740800  0.39777600  1
  O  O12  1  0.86740800  0.39777600  0.86740800  1
  O  O13  1  0.38259200  0.38259200  0.85222400  1
  O  O14  1  0.85222400  0.38259200  0.38259200  1
  O  O15  1  0.38259200  0.38259200  0.38259200  1
