# generated using pymatgen
data_H11S2N3O7
_symmetry_space_group_name_H-M   'P 1'
_cell_length_a   6.15473700
_cell_length_b   9.95353900
_cell_length_c   13.24283800
_cell_angle_alpha   90.00000000
_cell_angle_beta   90.00000000
_cell_angle_gamma   90.00000000
_symmetry_Int_Tables_number   1
_chemical_formula_structural   H11S2N3O7
_chemical_formula_sum   'H44 S8 N12 O28'
_cell_volume   811.27499137
_cell_formula_units_Z   4
loop_
 _symmetry_equiv_pos_site_id
 _symmetry_equiv_pos_as_xyz
  1  'x, y, z'
loop_
 _atom_site_type_symbol
 _atom_site_label
 _atom_site_symmetry_multiplicity
 _atom_site_fract_x
 _atom_site_fract_y
 _atom_site_fract_z
 _atom_site_occupancy
  H  H0  1  0.71699900  0.05184800  0.35450600  1
  H  H1  1  0.68126400  0.01770700  0.97756400  1
  H  H2  1  0.03375800  0.07111600  0.61769700  1
  H  H3  1  0.17893900  0.06264200  0.32223600  1
  H  H4  1  0.30777800  0.08865200  0.58861000  1
  H  H5  1  0.70353800  0.08047700  0.09428600  1
  H  H6  1  0.23153800  0.13429300  0.20659800  1
  H  H7  1  0.83438300  0.15945900  0.99987700  1
  H  H8  1  0.56322400  0.16875500  0.00601100  1
  H  H9  1  0.36332800  0.18599500  0.31241500  1
  H  H10  1  0.10109200  0.22291200  0.29556200  1
  H  H11  1  0.60109200  0.27708800  0.79556200  1
  H  H12  1  0.86332800  0.31400500  0.81241500  1
  H  H13  1  0.06322400  0.33124500  0.50601100  1
  H  H14  1  0.33438300  0.34054100  0.49987700  1
  H  H15  1  0.73153800  0.36570700  0.70659800  1
  H  H16  1  0.20353800  0.41952300  0.59428600  1
  H  H17  1  0.80777800  0.41134800  0.08861000  1
  H  H18  1  0.67893900  0.43735800  0.82223600  1
  H  H19  1  0.53375800  0.42888400  0.11769700  1
  H  H20  1  0.18126400  0.48229300  0.47756400  1
  H  H21  1  0.21699900  0.44815200  0.85450600  1
  H  H22  1  0.71699900  0.55184800  0.14549400  1
  H  H23  1  0.68126400  0.51770700  0.52243600  1
  H  H24  1  0.03375800  0.57111600  0.88230300  1
  H  H25  1  0.17893900  0.56264200  0.17776400  1
  H  H26  1  0.30777800  0.58865200  0.91139000  1
  H  H27  1  0.70353800  0.58047700  0.40571400  1
  H  H28  1  0.23153800  0.63429300  0.29340200  1
  H  H29  1  0.83438300  0.65945900  0.50012300  1
  H  H30  1  0.56322400  0.66875500  0.49398900  1
  H  H31  1  0.36332800  0.68599500  0.18758500  1
  H  H32  1  0.10109200  0.72291200  0.20443800  1
  H  H33  1  0.60109200  0.77708800  0.70443800  1
  H  H34  1  0.86332800  0.81400500  0.68758500  1
  H  H35  1  0.06322400  0.83124500  0.99398900  1
  H  H36  1  0.33438300  0.84054100  0.00012300  1
  H  H37  1  0.73153800  0.86570700  0.79340200  1
  H  H38  1  0.20353800  0.91952300  0.90571400  1
  H  H39  1  0.80777800  0.91134800  0.41139000  1
  H  H40  1  0.67893900  0.93735800  0.67776400  1
  H  H41  1  0.53375800  0.92888400  0.38230300  1
  H  H42  1  0.18126400  0.98229300  0.02243600  1
  H  H43  1  0.21699900  0.94815200  0.64549400  1
  S  S44  1  0.22025500  0.12883200  0.76441900  1
  S  S45  1  0.70277600  0.20229300  0.53521700  1
  S  S46  1  0.20277600  0.29770700  0.03521700  1
  S  S47  1  0.72025500  0.37116800  0.26441900  1
  S  S48  1  0.22025500  0.62883200  0.73558100  1
  S  S49  1  0.70277600  0.70229300  0.96478300  1
  S  S50  1  0.20277600  0.79770700  0.46478300  1
  S  S51  1  0.72025500  0.87116800  0.23558100  1
  N  N52  1  0.19461200  0.05099000  0.64101200  1
  N  N53  1  0.69570200  0.10604200  0.01908200  1
  N  N54  1  0.21835700  0.15062000  0.28455500  1
  N  N55  1  0.71835700  0.34938000  0.78455500  1
  N  N56  1  0.19570200  0.39395800  0.51908200  1
  N  N57  1  0.69461200  0.44901000  0.14101200  1
  N  N58  1  0.19461200  0.55099000  0.85898800  1
  N  N59  1  0.69570200  0.60604200  0.48091800  1
  N  N60  1  0.21835700  0.65062000  0.21544500  1
  N  N61  1  0.71835700  0.84938000  0.71544500  1
  N  N62  1  0.19570200  0.89395800  0.98091800  1
  N  N63  1  0.69461200  0.94901000  0.35898800  1
  O  O64  1  0.03031100  0.07610000  0.81608300  1
  O  O65  1  0.42831900  0.07991500  0.80139600  1
  O  O66  1  0.75073000  0.11065800  0.62156300  1
  O  O67  1  0.19603500  0.15508900  0.07256300  1
  O  O68  1  0.48527900  0.16721100  0.49104500  1
  O  O69  1  0.87739400  0.18928600  0.45800000  1
  O  O70  1  0.71179000  0.22964500  0.23752300  1
  O  O71  1  0.21179000  0.27035500  0.73752300  1
  O  O72  1  0.37739400  0.31071400  0.95800000  1
  O  O73  1  0.98527900  0.33278900  0.99104500  1
  O  O74  1  0.69603500  0.34491100  0.57256300  1
  O  O75  1  0.25073000  0.38934200  0.12156300  1
  O  O76  1  0.92831900  0.42008500  0.30139600  1
  O  O77  1  0.53031100  0.42390000  0.31608300  1
  O  O78  1  0.03031100  0.57610000  0.68391700  1
  O  O79  1  0.42831900  0.57991500  0.69860400  1
  O  O80  1  0.75073000  0.61065800  0.87843700  1
  O  O81  1  0.19603500  0.65508900  0.42743700  1
  O  O82  1  0.48527900  0.66721100  0.00895500  1
  O  O83  1  0.87739400  0.68928600  0.04200000  1
  O  O84  1  0.71179000  0.72964500  0.26247700  1
  O  O85  1  0.21179000  0.77035500  0.76247700  1
  O  O86  1  0.37739400  0.81071400  0.54200000  1
  O  O87  1  0.98527900  0.83278900  0.50895500  1
  O  O88  1  0.69603500  0.84491100  0.92743700  1
  O  O89  1  0.25073000  0.88934200  0.37843700  1
  O  O90  1  0.92831900  0.92008500  0.19860400  1
  O  O91  1  0.53031100  0.92390000  0.18391700  1
