# generated using pymatgen
data_SrCaI4
_symmetry_space_group_name_H-M   'P 1'
_cell_length_a   16.32642800
_cell_length_b   8.10451800
_cell_length_c   8.37030057
_cell_angle_alpha   85.85845286
_cell_angle_beta   90.00000000
_cell_angle_gamma   90.00000000
_symmetry_Int_Tables_number   1
_chemical_formula_structural   SrCaI4
_chemical_formula_sum   'Sr4 Ca4 I16'
_cell_volume   1104.64785831
_cell_formula_units_Z   4
loop_
 _symmetry_equiv_pos_site_id
 _symmetry_equiv_pos_as_xyz
  1  'x, y, z'
loop_
 _atom_site_type_symbol
 _atom_site_label
 _atom_site_symmetry_multiplicity
 _atom_site_fract_x
 _atom_site_fract_y
 _atom_site_fract_z
 _atom_site_occupancy
  Sr  Sr0  1  0.86634600  0.34532200  0.89386700  1
  Sr  Sr1  1  0.63365400  0.34532200  0.39386700  1
  Sr  Sr2  1  0.36634600  0.65467800  0.60613300  1
  Sr  Sr3  1  0.13365400  0.65467800  0.10613300  1
  Ca  Ca4  1  0.13657600  0.22698700  0.74200300  1
  Ca  Ca5  1  0.36342400  0.22698700  0.24200300  1
  Ca  Ca6  1  0.63657600  0.77301300  0.75799700  1
  Ca  Ca7  1  0.86342400  0.77301300  0.25799700  1
  I  I8  1  0.70463500  0.12571600  0.72827200  1
  I  I9  1  0.44983900  0.26884200  0.56839400  1
  I  I10  1  0.27969900  0.40954000  0.92634000  1
  I  I11  1  0.79536500  0.12571600  0.22827200  1
  I  I12  1  0.97026500  0.23450400  0.59208700  1
  I  I13  1  0.05016100  0.26884200  0.06839400  1
  I  I14  1  0.22030100  0.40954000  0.42634000  1
  I  I15  1  0.52973500  0.23450400  0.09208700  1
  I  I16  1  0.47026500  0.76549600  0.90791300  1
  I  I17  1  0.77969900  0.59046000  0.57366000  1
  I  I18  1  0.94983900  0.73115800  0.93160600  1
  I  I19  1  0.02973500  0.76549600  0.40791300  1
  I  I20  1  0.20463500  0.87428400  0.77172800  1
  I  I21  1  0.72030100  0.59046000  0.07366000  1
  I  I22  1  0.55016100  0.73115800  0.43160600  1
  I  I23  1  0.29536500  0.87428400  0.27172800  1
