# generated using pymatgen
data_Fe3OF5
_symmetry_space_group_name_H-M   'P 1'
_cell_length_a   4.80734300
_cell_length_b   5.80720132
_cell_length_c   8.07526411
_cell_angle_alpha   92.59653199
_cell_angle_beta   90.64274822
_cell_angle_gamma   90.16236059
_symmetry_Int_Tables_number   1
_chemical_formula_structural   Fe3OF5
_chemical_formula_sum   'Fe6 O2 F10'
_cell_volume   225.19194688
_cell_formula_units_Z   2
loop_
 _symmetry_equiv_pos_site_id
 _symmetry_equiv_pos_as_xyz
  1  'x, y, z'
loop_
 _atom_site_type_symbol
 _atom_site_label
 _atom_site_symmetry_multiplicity
 _atom_site_fract_x
 _atom_site_fract_y
 _atom_site_fract_z
 _atom_site_occupancy
  Fe  Fe0  1  0.50423500  0.83800300  0.32869100  1
  Fe  Fe1  1  0.49399200  0.48415100  0.99795400  1
  Fe  Fe2  1  0.46244800  0.17759800  0.68228100  1
  Fe  Fe3  1  0.01625700  0.33178900  0.35218700  1
  Fe  Fe4  1  0.01446600  0.65532800  0.66300700  1
  Fe  Fe5  1  0.00537500  0.01188600  0.98875300  1
  O  O6  1  0.20607200  0.36357300  0.55433100  1
  O  O7  1  0.31069600  0.19347100  0.89382100  1
  F  F8  1  0.18950000  0.04242100  0.24601300  1
  F  F9  1  0.19739800  0.69657400  0.90023800  1
  F  F10  1  0.28858600  0.53395900  0.23489100  1
  F  F11  1  0.30814200  0.87806800  0.56787500  1
  F  F12  1  0.70207600  0.13989800  0.43845900  1
  F  F13  1  0.70373600  0.45647500  0.75771400  1
  F  F14  1  0.70077300  0.80077500  0.09579700  1
  F  F15  1  0.78755100  0.96379000  0.75194300  1
  F  F16  1  0.80233700  0.62636100  0.42101500  1
  F  F17  1  0.80636000  0.30588200  0.12502400  1
