# generated using pymatgen
data_YTa3O9
_symmetry_space_group_name_H-M   'P 1'
_cell_length_a   6.47977200
_cell_length_b   7.65623700
_cell_length_c   12.61622200
_cell_angle_alpha   90.00000000
_cell_angle_beta   90.00000000
_cell_angle_gamma   90.00000000
_symmetry_Int_Tables_number   1
_chemical_formula_structural   YTa3O9
_chemical_formula_sum   'Y4 Ta12 O36'
_cell_volume   625.89922803
_cell_formula_units_Z   4
loop_
 _symmetry_equiv_pos_site_id
 _symmetry_equiv_pos_as_xyz
  1  'x, y, z'
loop_
 _atom_site_type_symbol
 _atom_site_label
 _atom_site_symmetry_multiplicity
 _atom_site_fract_x
 _atom_site_fract_y
 _atom_site_fract_z
 _atom_site_occupancy
  Y  Y0  1  0.05768100  0.25000000  0.46444400  1
  Y  Y1  1  0.44231900  0.75000000  0.96444400  1
  Y  Y2  1  0.55768100  0.25000000  0.03555600  1
  Y  Y3  1  0.94231900  0.75000000  0.53555600  1
  Ta  Ta4  1  0.00000000  0.00000000  0.00000000  1
  Ta  Ta5  1  0.00000000  0.50000000  0.00000000  1
  Ta  Ta6  1  0.20264000  0.00278900  0.71261000  1
  Ta  Ta7  1  0.20264000  0.49721100  0.71261000  1
  Ta  Ta8  1  0.29736000  0.50278900  0.21261000  1
  Ta  Ta9  1  0.29736000  0.99721100  0.21261000  1
  Ta  Ta10  1  0.50000000  0.00000000  0.50000000  1
  Ta  Ta11  1  0.50000000  0.50000000  0.50000000  1
  Ta  Ta12  1  0.70264000  0.00278900  0.78739000  1
  Ta  Ta13  1  0.70264000  0.49721100  0.78739000  1
  Ta  Ta14  1  0.79736000  0.50278900  0.28739000  1
  Ta  Ta15  1  0.79736000  0.99721100  0.28739000  1
  O  O16  1  0.01408400  0.04321600  0.84300100  1
  O  O17  1  0.01408400  0.45678400  0.84300100  1
  O  O18  1  0.07402700  0.75000000  0.97344800  1
  O  O19  1  0.10603700  0.03559600  0.33159200  1
  O  O20  1  0.10603700  0.46440400  0.33159200  1
  O  O21  1  0.16214800  0.25000000  0.67103700  1
  O  O22  1  0.19957700  0.75000000  0.69376600  1
  O  O23  1  0.20454100  0.53119100  0.53637200  1
  O  O24  1  0.20454100  0.96880900  0.53637200  1
  O  O25  1  0.29545900  0.03119100  0.03637200  1
  O  O26  1  0.29545900  0.46880900  0.03637200  1
  O  O27  1  0.30042300  0.25000000  0.19376600  1
  O  O28  1  0.33785200  0.75000000  0.17103700  1
  O  O29  1  0.39396300  0.53559600  0.83159200  1
  O  O30  1  0.39396300  0.96440400  0.83159200  1
  O  O31  1  0.42597300  0.25000000  0.47344800  1
  O  O32  1  0.48591600  0.54321600  0.34300100  1
  O  O33  1  0.48591600  0.95678400  0.34300100  1
  O  O34  1  0.51408400  0.04321600  0.65699900  1
  O  O35  1  0.51408400  0.45678400  0.65699900  1
  O  O36  1  0.57402700  0.75000000  0.52655200  1
  O  O37  1  0.60603700  0.03559600  0.16840800  1
  O  O38  1  0.60603700  0.46440400  0.16840800  1
  O  O39  1  0.66214800  0.25000000  0.82896300  1
  O  O40  1  0.69957700  0.75000000  0.80623400  1
  O  O41  1  0.70454100  0.53119100  0.96362800  1
  O  O42  1  0.70454100  0.96880900  0.96362800  1
  O  O43  1  0.79545900  0.03119100  0.46362800  1
  O  O44  1  0.79545900  0.46880900  0.46362800  1
  O  O45  1  0.80042300  0.25000000  0.30623400  1
  O  O46  1  0.83785200  0.75000000  0.32896300  1
  O  O47  1  0.89396300  0.53559600  0.66840800  1
  O  O48  1  0.89396300  0.96440400  0.66840800  1
  O  O49  1  0.92597300  0.25000000  0.02655200  1
  O  O50  1  0.98591600  0.54321600  0.15699900  1
  O  O51  1  0.98591600  0.95678400  0.15699900  1
