# generated using pymatgen
data_Fe4O3F5
_symmetry_space_group_name_H-M   'P 1'
_cell_length_a   4.78052100
_cell_length_b   7.83918646
_cell_length_c   7.85885220
_cell_angle_alpha   104.70717319
_cell_angle_beta   90.61935616
_cell_angle_gamma   90.60113829
_symmetry_Int_Tables_number   1
_chemical_formula_structural   Fe4O3F5
_chemical_formula_sum   'Fe8 O6 F10'
_cell_volume   284.82082575
_cell_formula_units_Z   2
loop_
 _symmetry_equiv_pos_site_id
 _symmetry_equiv_pos_as_xyz
  1  'x, y, z'
loop_
 _atom_site_type_symbol
 _atom_site_label
 _atom_site_symmetry_multiplicity
 _atom_site_fract_x
 _atom_site_fract_y
 _atom_site_fract_z
 _atom_site_occupancy
  Fe  Fe0  1  0.46072300  0.63391900  0.88391500  1
  Fe  Fe1  1  0.49490400  0.86615800  0.61515200  1
  Fe  Fe2  1  0.56167500  0.37750600  0.12959300  1
  Fe  Fe3  1  0.52989200  0.14637500  0.39666600  1
  Fe  Fe4  1  0.98791600  0.73558700  0.21724400  1
  Fe  Fe5  1  0.01299600  0.50492400  0.50491800  1
  Fe  Fe6  1  0.95560500  0.23711900  0.75671600  1
  Fe  Fe7  1  0.00921200  0.00565600  0.00568400  1
  O  O8  1  0.80422800  0.22111700  0.97125900  1
  O  O9  1  0.68520900  0.59830800  0.08864300  1
  O  O10  1  0.70342200  0.35168100  0.35536500  1
  O  O11  1  0.68783600  0.08657900  0.59702700  1
  O  O12  1  0.31922700  0.65782300  0.65362200  1
  O  O13  1  0.19338600  0.77971900  0.02952400  1
  F  F14  1  0.79726200  0.46551500  0.73420800  1
  F  F15  1  0.78673800  0.97208700  0.23420800  1
  F  F16  1  0.80435400  0.73493200  0.45903900  1
  F  F17  1  0.69896400  0.84663300  0.84259600  1
  F  F18  1  0.29255900  0.90142200  0.39752800  1
  F  F19  1  0.31443300  0.16160300  0.16638200  1
  F  F20  1  0.29471500  0.39435400  0.89611200  1
  F  F21  1  0.20553200  0.02704800  0.76500300  1
  F  F22  1  0.20298400  0.53180800  0.26213000  1
  F  F23  1  0.19622800  0.26212500  0.53746300  1
