# generated using pymatgen
data_VF4
_symmetry_space_group_name_H-M   'P 1'
_cell_length_a   5.08069500
_cell_length_b   7.53105700
_cell_length_c   7.54859482
_cell_angle_alpha   76.46115032
_cell_angle_beta   90.00000000
_cell_angle_gamma   90.00000000
_symmetry_Int_Tables_number   1
_chemical_formula_structural   VF4
_chemical_formula_sum   'V4 F16'
_cell_volume   280.80567904
_cell_formula_units_Z   4
loop_
 _symmetry_equiv_pos_site_id
 _symmetry_equiv_pos_as_xyz
  1  'x, y, z'
loop_
 _atom_site_type_symbol
 _atom_site_label
 _atom_site_symmetry_multiplicity
 _atom_site_fract_x
 _atom_site_fract_y
 _atom_site_fract_z
 _atom_site_occupancy
  V  V0  1  0.74612000  0.18982200  0.19899400  1
  V  V1  1  0.75388000  0.68982200  0.19899400  1
  V  V2  1  0.24612000  0.31017800  0.80100600  1
  V  V3  1  0.25388000  0.81017800  0.80100600  1
  F  F4  1  0.05196800  0.28375300  0.03465300  1
  F  F5  1  0.44803200  0.78375300  0.03465300  1
  F  F6  1  0.64242500  0.44491100  0.18446500  1
  F  F7  1  0.44862900  0.10146100  0.30484700  1
  F  F8  1  0.85757500  0.94491100  0.18446500  1
  F  F9  1  0.05137100  0.60146100  0.30484700  1
  F  F10  1  0.95054600  0.19209000  0.38581200  1
  F  F11  1  0.54945400  0.69209000  0.38581200  1
  F  F12  1  0.45054600  0.30791000  0.61418800  1
  F  F13  1  0.04945400  0.80791000  0.61418800  1
  F  F14  1  0.94862900  0.39853900  0.69515300  1
  F  F15  1  0.14242500  0.05508900  0.81553500  1
  F  F16  1  0.55137100  0.89853900  0.69515300  1
  F  F17  1  0.35757500  0.55508900  0.81553500  1
  F  F18  1  0.55196800  0.21624700  0.96534700  1
  F  F19  1  0.94803200  0.71624700  0.96534700  1
