# generated using pymatgen
data_V2(OF)3
_symmetry_space_group_name_H-M   'P 1'
_cell_length_a   5.23207400
_cell_length_b   5.23969747
_cell_length_c   13.28538530
_cell_angle_alpha   90.87504247
_cell_angle_beta   89.64753006
_cell_angle_gamma   119.41870132
_symmetry_Int_Tables_number   1
_chemical_formula_structural   V2(OF)3
_chemical_formula_sum   'V6 O9 F9'
_cell_volume   317.21076667
_cell_formula_units_Z   3
loop_
 _symmetry_equiv_pos_site_id
 _symmetry_equiv_pos_as_xyz
  1  'x, y, z'
loop_
 _atom_site_type_symbol
 _atom_site_label
 _atom_site_symmetry_multiplicity
 _atom_site_fract_x
 _atom_site_fract_y
 _atom_site_fract_z
 _atom_site_occupancy
  V  V0  1  0.02242100  0.98867100  0.49050400  1
  V  V1  1  0.99350700  0.97140300  0.99313000  1
  V  V2  1  0.32134100  0.63329400  0.81938400  1
  V  V3  1  0.68092900  0.30839500  0.66022700  1
  V  V4  1  0.37979100  0.65599900  0.33270300  1
  V  V5  1  0.69944900  0.36273400  0.15193600  1
  O  O6  1  0.00102400  0.43091800  0.75664200  1
  O  O7  1  0.09690000  0.77893400  0.91913200  1
  O  O8  1  0.76148800  0.10079000  0.58444300  1
  O  O9  1  0.42515300  0.43327300  0.25241100  1
  O  O10  1  0.55660100  0.56853400  0.75377700  1
  O  O11  1  0.22955000  0.90144500  0.41756000  1
  O  O12  1  0.88959900  0.23745700  0.08653000  1
  O  O13  1  0.66082800  0.75908200  0.41446300  1
  O  O14  1  0.75312000  0.65881500  0.08643100  1
  F  F15  1  0.40877100  0.99564100  0.75274500  1
  F  F16  1  0.08665600  0.34281100  0.41520900  1
  F  F17  1  0.32468900  0.09080200  0.09268500  1
  F  F18  1  0.25336500  0.35923000  0.92403600  1
  F  F19  1  0.33525500  0.26099000  0.58403400  1
  F  F20  1  0.98509900  0.56487700  0.25288000  1
  F  F21  1  0.55757200  0.99290700  0.25288100  1
  F  F22  1  0.65768900  0.92165400  0.91504000  1
  F  F23  1  0.91920500  0.68134600  0.59121900  1
