# generated using pymatgen
data_Co3(OF2)2
_symmetry_space_group_name_H-M   'P 1'
_cell_length_a   5.50760100
_cell_length_b   5.57278103
_cell_length_c   7.13662475
_cell_angle_alpha   73.76559008
_cell_angle_beta   73.51580748
_cell_angle_gamma   72.03467705
_symmetry_Int_Tables_number   1
_chemical_formula_structural   Co3(OF2)2
_chemical_formula_sum   'Co6 O4 F8'
_cell_volume   195.31949255
_cell_formula_units_Z   2
loop_
 _symmetry_equiv_pos_site_id
 _symmetry_equiv_pos_as_xyz
  1  'x, y, z'
loop_
 _atom_site_type_symbol
 _atom_site_label
 _atom_site_symmetry_multiplicity
 _atom_site_fract_x
 _atom_site_fract_y
 _atom_site_fract_z
 _atom_site_occupancy
  Co  Co0  1  0.69426100  0.67808900  0.84058800  1
  Co  Co1  1  0.69178500  0.63231000  0.32218300  1
  Co  Co2  1  0.30821500  0.36769000  0.67781700  1
  Co  Co3  1  0.30573900  0.32191100  0.15941200  1
  Co  Co4  1  0.00000000  0.00000000  0.50000000  1
  Co  Co5  1  0.00000000  0.00000000  0.00000000  1
  O  O6  1  0.02230300  0.66671100  0.66827900  1
  O  O7  1  0.20985700  0.23545800  0.96788400  1
  O  O8  1  0.79014300  0.76454200  0.03211600  1
  O  O9  1  0.97769700  0.33328900  0.33172100  1
  F  F10  1  0.37725600  0.94202900  0.33668100  1
  F  F11  1  0.58184400  0.57420300  0.63408000  1
  F  F12  1  0.91001000  0.88922200  0.29732000  1
  F  F13  1  0.41815600  0.42579700  0.36592000  1
  F  F14  1  0.08999000  0.11077800  0.70268000  1
  F  F15  1  0.62274400  0.05797100  0.66331900  1
  F  F16  1  0.32102200  0.70380600  0.99369400  1
  F  F17  1  0.67897800  0.29619400  0.00630600  1
