# generated using pymatgen
data_Sr9La5Br33
_symmetry_space_group_name_H-M   'P 1'
_cell_length_a   11.97637300
_cell_length_b   12.01773413
_cell_length_c   22.84693383
_cell_angle_alpha   99.57029086
_cell_angle_beta   100.04143053
_cell_angle_gamma   109.10260487
_symmetry_Int_Tables_number   1
_chemical_formula_structural   Sr9La5Br33
_chemical_formula_sum   'Sr18 La10 Br66'
_cell_volume   2970.22890947
_cell_formula_units_Z   2
loop_
 _symmetry_equiv_pos_site_id
 _symmetry_equiv_pos_as_xyz
  1  'x, y, z'
loop_
 _atom_site_type_symbol
 _atom_site_label
 _atom_site_symmetry_multiplicity
 _atom_site_fract_x
 _atom_site_fract_y
 _atom_site_fract_z
 _atom_site_occupancy
  Sr  Sr0  1  0.92236400  0.24817400  0.92971800  1
  Sr  Sr1  1  0.31929000  0.08915200  0.96885800  1
  Sr  Sr2  1  0.47384300  0.02063700  0.19368800  1
  Sr  Sr3  1  0.86745500  0.26579300  0.33808600  1
  Sr  Sr4  1  0.24489600  0.13297500  0.37830900  1
  Sr  Sr5  1  0.68149800  0.40211200  0.54005300  1
  Sr  Sr6  1  0.07167300  0.24596500  0.56323400  1
  Sr  Sr7  1  0.76128700  0.35469200  0.12075000  1
  Sr  Sr8  1  0.13382500  0.22128100  0.15769700  1
  Sr  Sr9  1  0.86617500  0.77871900  0.84230300  1
  Sr  Sr10  1  0.23871300  0.64530800  0.87925000  1
  Sr  Sr11  1  0.92832700  0.75403500  0.43676600  1
  Sr  Sr12  1  0.31850200  0.59788800  0.45994700  1
  Sr  Sr13  1  0.75510400  0.86702500  0.62169100  1
  Sr  Sr14  1  0.13254500  0.73420700  0.66191400  1
  Sr  Sr15  1  0.52615700  0.97936300  0.80631200  1
  Sr  Sr16  1  0.68071000  0.91084800  0.03114200  1
  Sr  Sr17  1  0.07763600  0.75182600  0.07028200  1
  La  La18  1  0.38049000  0.04435800  0.58600000  1
  La  La19  1  0.17806500  0.14012400  0.76546700  1
  La  La20  1  0.85706400  0.35273900  0.73380700  1
  La  La21  1  0.62717100  0.45609600  0.92696300  1
  La  La22  1  0.46346400  0.53999700  0.68636200  1
  La  La23  1  0.53653600  0.46000300  0.31363800  1
  La  La24  1  0.37282900  0.54390400  0.07303700  1
  La  La25  1  0.14293600  0.64726100  0.26619300  1
  La  La26  1  0.82193500  0.85987600  0.23453300  1
  La  La27  1  0.61951000  0.95564200  0.41400000  1
  Br  Br28  1  0.77143500  0.13846400  0.78712000  1
  Br  Br29  1  0.94463300  0.14898300  0.67222700  1
  Br  Br30  1  0.62438500  0.20467800  0.91830400  1
  Br  Br31  1  0.73789600  0.04666400  0.19354100  1
  Br  Br32  1  0.15645200  0.00880200  0.63579500  1
  Br  Br33  1  0.05882200  0.07243000  0.87613100  1
  Br  Br34  1  0.65542300  0.18658200  0.62465100  1
  Br  Br35  1  0.44694400  0.18579200  0.73969600  1
  Br  Br36  1  0.81320600  0.22658600  0.47646200  1
  Br  Br37  1  0.58724700  0.11892800  0.33520800  1
  Br  Br38  1  0.47727900  0.12160800  0.47131400  1
  Br  Br39  1  0.15408200  0.04075600  0.48581100  1
  Br  Br40  1  0.35531700  0.29377800  0.88378200  1
  Br  Br41  1  0.88662500  0.18385400  0.06030500  1
  Br  Br42  1  0.82390500  0.45860600  0.85748800  1
  Br  Br43  1  0.55505900  0.10603100  0.07225500  1
  Br  Br44  1  0.94857700  0.43362300  0.62519000  1
  Br  Br45  1  0.24452400  0.03923900  0.09344200  1
  Br  Br46  1  0.39448400  0.30389600  0.58788800  1
  Br  Br47  1  0.97658700  0.37307200  0.22382600  1
  Br  Br48  1  0.34529500  0.20221000  0.26297700  1
  Br  Br49  1  0.65945800  0.31483200  0.23777700  1
  Br  Br50  1  0.03673000  0.12429900  0.27578100  1
  Br  Br51  1  0.24545100  0.35755500  0.70830900  1
  Br  Br52  1  0.70694700  0.50304100  0.69029800  1
  Br  Br53  1  0.07999900  0.35755700  0.82520700  1
  Br  Br54  1  0.75603700  0.46524400  0.40853200  1
  Br  Br55  1  0.57396900  0.56649600  0.82126900  1
  Br  Br56  1  0.44716700  0.39109000  0.42662100  1
  Br  Br57  1  0.80369500  0.71962000  0.97085300  1
  Br  Br58  1  0.46895600  0.61409800  0.96172800  1
  Br  Br59  1  0.12276000  0.31876900  0.43686400  1
  Br  Br60  1  0.14368000  0.53080700  0.98088700  1
  Br  Br61  1  0.85632000  0.46919300  0.01911300  1
  Br  Br62  1  0.87724000  0.68123100  0.56313600  1
  Br  Br63  1  0.53104400  0.38590200  0.03827200  1
  Br  Br64  1  0.19630500  0.28038000  0.02914700  1
  Br  Br65  1  0.55283300  0.60891000  0.57337900  1
  Br  Br66  1  0.42603100  0.43350400  0.17873100  1
  Br  Br67  1  0.24396300  0.53475600  0.59146800  1
  Br  Br68  1  0.92000100  0.64244300  0.17479300  1
  Br  Br69  1  0.29305300  0.49695900  0.30970200  1
  Br  Br70  1  0.75454900  0.64244500  0.29169100  1
  Br  Br71  1  0.96327000  0.87570100  0.72421900  1
  Br  Br72  1  0.34054200  0.68516800  0.76222300  1
  Br  Br73  1  0.65470500  0.79779000  0.73702300  1
  Br  Br74  1  0.02341300  0.62692800  0.77617400  1
  Br  Br75  1  0.60551600  0.69610400  0.41211200  1
  Br  Br76  1  0.75547600  0.96076100  0.90655800  1
  Br  Br77  1  0.05142300  0.56637700  0.37481000  1
  Br  Br78  1  0.44494100  0.89396900  0.92774500  1
  Br  Br79  1  0.17609500  0.54139400  0.14251200  1
  Br  Br80  1  0.11337500  0.81614600  0.93969500  1
  Br  Br81  1  0.64468300  0.70622200  0.11621800  1
  Br  Br82  1  0.84591800  0.95924400  0.51418900  1
  Br  Br83  1  0.52272100  0.87839200  0.52868600  1
  Br  Br84  1  0.41275300  0.88107200  0.66479200  1
  Br  Br85  1  0.18679400  0.77341400  0.52353800  1
  Br  Br86  1  0.55305600  0.81420800  0.26030400  1
  Br  Br87  1  0.34457700  0.81341800  0.37534900  1
  Br  Br88  1  0.94117800  0.92757000  0.12386900  1
  Br  Br89  1  0.84354800  0.99119800  0.36420500  1
  Br  Br90  1  0.26210400  0.95333600  0.80645900  1
  Br  Br91  1  0.37561500  0.79532200  0.08169600  1
  Br  Br92  1  0.05536700  0.85101700  0.32777300  1
  Br  Br93  1  0.22856500  0.86153600  0.21288000  1
