# generated using pymatgen
data_K2HfF6
_symmetry_space_group_name_H-M   'P 1'
_cell_length_a   6.57556300
_cell_length_b   6.57556300
_cell_length_c   8.84126800
_cell_angle_alpha   90.00000000
_cell_angle_beta   90.00000000
_cell_angle_gamma   90.00000000
_symmetry_Int_Tables_number   1
_chemical_formula_structural   K2HfF6
_chemical_formula_sum   'K4 Hf2 F12'
_cell_volume   382.27900012
_cell_formula_units_Z   2
loop_
 _symmetry_equiv_pos_site_id
 _symmetry_equiv_pos_as_xyz
  1  'x, y, z'
loop_
 _atom_site_type_symbol
 _atom_site_label
 _atom_site_symmetry_multiplicity
 _atom_site_fract_x
 _atom_site_fract_y
 _atom_site_fract_z
 _atom_site_occupancy
  K  K0  1  0.00000000  0.50000000  0.25000000  1
  K  K1  1  0.50000000  0.00000000  0.25000000  1
  K  K2  1  0.50000000  0.00000000  0.75000000  1
  K  K3  1  0.00000000  0.50000000  0.75000000  1
  Hf  Hf4  1  0.00000000  0.00000000  0.00000000  1
  Hf  Hf5  1  0.50000000  0.50000000  0.50000000  1
  F  F6  1  0.39725700  0.21189000  0.50000000  1
  F  F7  1  0.60274300  0.78811000  0.50000000  1
  F  F8  1  0.71189000  0.89725700  0.00000000  1
  F  F9  1  0.21189000  0.60274300  0.50000000  1
  F  F10  1  0.78811000  0.39725700  0.50000000  1
  F  F11  1  0.10274300  0.71189000  0.00000000  1
  F  F12  1  0.00000000  0.00000000  0.22668800  1
  F  F13  1  0.50000000  0.50000000  0.27331200  1
  F  F14  1  0.00000000  0.00000000  0.77331200  1
  F  F15  1  0.50000000  0.50000000  0.72668800  1
  F  F16  1  0.28811000  0.10274300  0.00000000  1
  F  F17  1  0.89725700  0.28811000  0.00000000  1
