# generated using pymatgen
data_KNa2Zn3(PO4)3
_symmetry_space_group_name_H-M   'P 1'
_cell_length_a   17.90930380
_cell_length_b   17.90930380
_cell_length_c   8.29936300
_cell_angle_alpha   90.00000000
_cell_angle_beta   90.00000000
_cell_angle_gamma   119.99999927
_symmetry_Int_Tables_number   1
_chemical_formula_structural   KNa2Zn3(PO4)3
_chemical_formula_sum   'K8 Na16 Zn24 P24 O96'
_cell_volume   2305.32841028
_cell_formula_units_Z   8
loop_
 _symmetry_equiv_pos_site_id
 _symmetry_equiv_pos_as_xyz
  1  'x, y, z'
loop_
 _atom_site_type_symbol
 _atom_site_label
 _atom_site_symmetry_multiplicity
 _atom_site_fract_x
 _atom_site_fract_y
 _atom_site_fract_z
 _atom_site_occupancy
  K  K0  1  0.00000000  0.00000000  0.34361100  1
  K  K1  1  0.00000000  0.00000000  0.84361100  1
  K  K2  1  0.99918300  0.50193000  0.32845000  1
  K  K3  1  0.49725300  0.99918300  0.82845000  1
  K  K4  1  0.50193000  0.50274700  0.82845000  1
  K  K5  1  0.49807000  0.49725300  0.32845000  1
  K  K6  1  0.50274700  0.00081700  0.32845000  1
  K  K7  1  0.00081700  0.49807000  0.82845000  1
  Na  Na8  1  0.32214900  0.15283100  0.81020100  1
  Na  Na9  1  0.16931800  0.32214900  0.31020100  1
  Na  Na10  1  0.15283100  0.83068200  0.31020100  1
  Na  Na11  1  0.84716900  0.16931800  0.81020100  1
  Na  Na12  1  0.83068200  0.67785100  0.81020100  1
  Na  Na13  1  0.67785100  0.84716900  0.31020100  1
  Na  Na14  1  0.15763700  0.33850800  0.86065400  1
  Na  Na15  1  0.81912900  0.15763700  0.36065400  1
  Na  Na16  1  0.33850800  0.18087100  0.36065400  1
  Na  Na17  1  0.66149200  0.81912900  0.86065400  1
  Na  Na18  1  0.18087100  0.84236300  0.86065400  1
  Na  Na19  1  0.84236300  0.66149200  0.36065400  1
  Na  Na20  1  0.33333300  0.66666700  0.36514500  1
  Na  Na21  1  0.66666700  0.33333300  0.86514500  1
  Na  Na22  1  0.33333300  0.66666700  0.80511100  1
  Na  Na23  1  0.66666700  0.33333300  0.30511100  1
  Zn  Zn24  1  0.16191900  0.17251900  0.00688600  1
  Zn  Zn25  1  0.98939900  0.16191900  0.50688600  1
  Zn  Zn26  1  0.17251900  0.01060100  0.50688600  1
  Zn  Zn27  1  0.82748100  0.98939900  0.00688600  1
  Zn  Zn28  1  0.01060100  0.83808100  0.00688600  1
  Zn  Zn29  1  0.83808100  0.82748100  0.50688600  1
  Zn  Zn30  1  0.00424000  0.33580100  0.16814300  1
  Zn  Zn31  1  0.66843800  0.00424000  0.66814300  1
  Zn  Zn32  1  0.33580100  0.33156200  0.66814300  1
  Zn  Zn33  1  0.66419900  0.66843800  0.16814300  1
  Zn  Zn34  1  0.33156200  0.99576000  0.16814300  1
  Zn  Zn35  1  0.99576000  0.66419900  0.66814300  1
  Zn  Zn36  1  0.50848600  0.33927500  0.15990800  1
  Zn  Zn37  1  0.16921100  0.50848600  0.65990800  1
  Zn  Zn38  1  0.33927500  0.83078900  0.65990800  1
  Zn  Zn39  1  0.66072500  0.16921100  0.15990800  1
  Zn  Zn40  1  0.83078900  0.49151400  0.15990800  1
  Zn  Zn41  1  0.49151400  0.66072500  0.65990800  1
  Zn  Zn42  1  0.32940000  0.49550200  0.16053500  1
  Zn  Zn43  1  0.83389700  0.32940000  0.66053500  1
  Zn  Zn44  1  0.49550200  0.16610300  0.66053500  1
  Zn  Zn45  1  0.50449800  0.83389700  0.16053500  1
  Zn  Zn46  1  0.16610300  0.67060000  0.16053500  1
  Zn  Zn47  1  0.67060000  0.50449800  0.66053500  1
  P  P48  1  0.15963200  0.17378600  0.61263400  1
  P  P49  1  0.98584600  0.15963200  0.11263400  1
  P  P50  1  0.17378600  0.01415400  0.11263400  1
  P  P51  1  0.82621400  0.98584600  0.61263400  1
  P  P52  1  0.01415400  0.84036800  0.61263400  1
  P  P53  1  0.84036800  0.82621400  0.11263400  1
  P  P54  1  0.00963600  0.33846900  0.55947100  1
  P  P55  1  0.67116800  0.00963600  0.05947100  1
  P  P56  1  0.33846900  0.32883200  0.05947100  1
  P  P57  1  0.66153100  0.67116800  0.55947100  1
  P  P58  1  0.32883200  0.99036400  0.55947100  1
  P  P59  1  0.99036400  0.66153100  0.05947100  1
  P  P60  1  0.17062000  0.51153800  0.05372400  1
  P  P61  1  0.65908200  0.17062000  0.55372400  1
  P  P62  1  0.51153800  0.34091800  0.55372400  1
  P  P63  1  0.48846200  0.65908200  0.05372400  1
  P  P64  1  0.34091800  0.82938000  0.05372400  1
  P  P65  1  0.82938000  0.48846200  0.55372400  1
  P  P66  1  0.32606900  0.48795900  0.55177200  1
  P  P67  1  0.83811000  0.32606900  0.05177200  1
  P  P68  1  0.48795900  0.16189000  0.05177200  1
  P  P69  1  0.51204100  0.83811000  0.55177200  1
  P  P70  1  0.16189000  0.67393100  0.55177200  1
  P  P71  1  0.67393100  0.51204100  0.05177200  1
  O  O72  1  0.03972900  0.25771200  0.07177500  1
  O  O73  1  0.78201700  0.03972900  0.57177500  1
  O  O74  1  0.25771200  0.21798300  0.57177500  1
  O  O75  1  0.74228800  0.78201700  0.07177500  1
  O  O76  1  0.21798300  0.96027100  0.07177500  1
  O  O77  1  0.96027100  0.74228800  0.57177500  1
  O  O78  1  0.12023100  0.57434500  0.56212700  1
  O  O79  1  0.54588600  0.12023100  0.06212700  1
  O  O80  1  0.57434500  0.45411400  0.06212700  1
  O  O81  1  0.42565500  0.54588600  0.56212700  1
  O  O82  1  0.45411400  0.87976900  0.56212700  1
  O  O83  1  0.87976900  0.42565500  0.06212700  1
  O  O84  1  0.20135400  0.05650500  0.28207500  1
  O  O85  1  0.14484900  0.20135400  0.78207500  1
  O  O86  1  0.05650500  0.85515100  0.78207500  1
  O  O87  1  0.94349500  0.14484900  0.28207500  1
  O  O88  1  0.85515100  0.79864600  0.28207500  1
  O  O89  1  0.79864600  0.94349500  0.78207500  1
  O  O90  1  0.24075600  0.28483000  0.10410600  1
  O  O91  1  0.95592600  0.24075600  0.60410600  1
  O  O92  1  0.28483000  0.04407400  0.60410600  1
  O  O93  1  0.71517000  0.95592600  0.10410600  1
  O  O94  1  0.04407400  0.75924400  0.10410600  1
  O  O95  1  0.75924400  0.71517000  0.60410600  1
  O  O96  1  0.21397200  0.45532300  0.07431500  1
  O  O97  1  0.75864800  0.21397200  0.57431500  1
  O  O98  1  0.45532300  0.24135200  0.57431500  1
  O  O99  1  0.54467700  0.75864800  0.07431500  1
  O  O100  1  0.24135200  0.78602800  0.07431500  1
  O  O101  1  0.78602800  0.54467700  0.57431500  1
  O  O102  1  0.11314800  0.20138500  0.48714700  1
  O  O103  1  0.91176300  0.11314800  0.98714700  1
  O  O104  1  0.20138500  0.08823700  0.98714700  1
  O  O105  1  0.79861500  0.91176300  0.48714700  1
  O  O106  1  0.08823700  0.88685200  0.48714700  1
  O  O107  1  0.88685200  0.79861500  0.98714700  1
  O  O108  1  0.07157000  0.45162300  0.07143600  1
  O  O109  1  0.61994700  0.07157000  0.57143600  1
  O  O110  1  0.45162300  0.38005300  0.57143600  1
  O  O111  1  0.54837700  0.61994700  0.07143600  1
  O  O112  1  0.38005300  0.92843000  0.07143600  1
  O  O113  1  0.92843000  0.54837700  0.57143600  1
  O  O114  1  0.05041300  0.62231600  0.06245300  1
  O  O115  1  0.42809700  0.05041300  0.56245300  1
  O  O116  1  0.62231600  0.57190300  0.56245300  1
  O  O117  1  0.37768400  0.42809700  0.06245300  1
  O  O118  1  0.57190300  0.94958700  0.06245300  1
  O  O119  1  0.94958700  0.37768400  0.56245300  1
  O  O120  1  0.12139600  0.07448100  0.60674700  1
  O  O121  1  0.04691500  0.12139600  0.10674700  1
  O  O122  1  0.07448100  0.95308500  0.10674700  1
  O  O123  1  0.92551900  0.04691500  0.60674700  1
  O  O124  1  0.95308500  0.87860400  0.60674700  1
  O  O125  1  0.87860400  0.92551900  0.10674700  1
  O  O126  1  0.28571400  0.54646800  0.58229900  1
  O  O127  1  0.73924600  0.28571400  0.08229900  1
  O  O128  1  0.54646800  0.26075400  0.08229900  1
  O  O129  1  0.45353200  0.73924600  0.58229900  1
  O  O130  1  0.26075400  0.71428600  0.58229900  1
  O  O131  1  0.71428600  0.45353200  0.08229900  1
  O  O132  1  0.20489500  0.58536400  0.18198200  1
  O  O133  1  0.61953100  0.20489500  0.68198200  1
  O  O134  1  0.58536400  0.38046900  0.68198200  1
  O  O135  1  0.41463600  0.61953100  0.18198200  1
  O  O136  1  0.38046900  0.79510500  0.18198200  1
  O  O137  1  0.79510500  0.41463600  0.68198200  1
  O  O138  1  0.08410600  0.38571700  0.68442900  1
  O  O139  1  0.69838900  0.08410600  0.18442900  1
  O  O140  1  0.38571700  0.30161100  0.18442900  1
  O  O141  1  0.61428300  0.69838900  0.68442900  1
  O  O142  1  0.30161100  0.91589400  0.68442900  1
  O  O143  1  0.91589400  0.61428300  0.18442900  1
  O  O144  1  0.19161400  0.55531900  0.88515300  1
  O  O145  1  0.63629500  0.19161400  0.38515300  1
  O  O146  1  0.55531900  0.36370500  0.38515300  1
  O  O147  1  0.44468100  0.63629500  0.88515300  1
  O  O148  1  0.36370500  0.80838600  0.88515300  1
  O  O149  1  0.80838600  0.44468100  0.38515300  1
  O  O150  1  0.05164200  0.35053700  0.39047900  1
  O  O151  1  0.70110500  0.05164200  0.89047900  1
  O  O152  1  0.35053700  0.29889500  0.89047900  1
  O  O153  1  0.64946300  0.70110500  0.39047900  1
  O  O154  1  0.29889500  0.94835800  0.39047900  1
  O  O155  1  0.94835800  0.64946300  0.89047900  1
  O  O156  1  0.29276500  0.41387600  0.67889700  1
  O  O157  1  0.87888800  0.29276500  0.17889700  1
  O  O158  1  0.41387600  0.12111200  0.17889700  1
  O  O159  1  0.58612400  0.87888800  0.67889700  1
  O  O160  1  0.12111200  0.70723500  0.67889700  1
  O  O161  1  0.70723500  0.58612400  0.17889700  1
  O  O162  1  0.30115800  0.44574600  0.38241300  1
  O  O163  1  0.85541200  0.30115800  0.88241300  1
  O  O164  1  0.44574600  0.14458800  0.88241300  1
  O  O165  1  0.55425400  0.85541200  0.38241300  1
  O  O166  1  0.14458800  0.69884200  0.38241300  1
  O  O167  1  0.69884200  0.55425400  0.88241300  1
