# generated using pymatgen
data_TiCdO3
_symmetry_space_group_name_H-M   'P 1'
_cell_length_a   5.36967800
_cell_length_b   5.48663900
_cell_length_c   7.71809500
_cell_angle_alpha   90.00000000
_cell_angle_beta   90.00000000
_cell_angle_gamma   90.00000000
_symmetry_Int_Tables_number   1
_chemical_formula_structural   TiCdO3
_chemical_formula_sum   'Ti4 Cd4 O12'
_cell_volume   227.38653800
_cell_formula_units_Z   4
loop_
 _symmetry_equiv_pos_site_id
 _symmetry_equiv_pos_as_xyz
  1  'x, y, z'
loop_
 _atom_site_type_symbol
 _atom_site_label
 _atom_site_symmetry_multiplicity
 _atom_site_fract_x
 _atom_site_fract_y
 _atom_site_fract_z
 _atom_site_occupancy
  Ti  Ti0  1  0.00000000  0.50000000  0.50000000  1
  Ti  Ti1  1  0.50000000  0.00000000  0.50000000  1
  Ti  Ti2  1  0.50000000  0.00000000  0.00000000  1
  Ti  Ti3  1  0.00000000  0.50000000  0.00000000  1
  Cd  Cd4  1  0.00862700  0.96105000  0.75000000  1
  Cd  Cd5  1  0.50862700  0.53895000  0.25000000  1
  Cd  Cd6  1  0.49137300  0.46105000  0.75000000  1
  Cd  Cd7  1  0.99137300  0.03895000  0.25000000  1
  O  O8  1  0.70111900  0.29623600  0.45330000  1
  O  O9  1  0.20111900  0.20376400  0.54670000  1
  O  O10  1  0.79888100  0.79623600  0.04670000  1
  O  O11  1  0.29888100  0.70376400  0.95330000  1
  O  O12  1  0.29888100  0.70376400  0.54670000  1
  O  O13  1  0.79888100  0.79623600  0.45330000  1
  O  O14  1  0.20111900  0.20376400  0.95330000  1
  O  O15  1  0.70111900  0.29623600  0.04670000  1
  O  O16  1  0.08944000  0.47196000  0.25000000  1
  O  O17  1  0.58944000  0.02804000  0.75000000  1
  O  O18  1  0.41056000  0.97196000  0.25000000  1
  O  O19  1  0.91056000  0.52804000  0.75000000  1
