# generated using pymatgen
data_IrC2
_symmetry_space_group_name_H-M   'P 1'
_cell_length_a   3.62599656
_cell_length_b   3.62599656
_cell_length_c   3.62599656
_cell_angle_alpha   123.51052872
_cell_angle_beta   123.51052872
_cell_angle_gamma   84.02005070
_symmetry_Int_Tables_number   1
_chemical_formula_structural   IrC2
_chemical_formula_sum   'Ir1 C2'
_cell_volume   31.73275178
_cell_formula_units_Z   1
loop_
 _symmetry_equiv_pos_site_id
 _symmetry_equiv_pos_as_xyz
  1  'x, y, z'
loop_
 _atom_site_type_symbol
 _atom_site_label
 _atom_site_symmetry_multiplicity
 _atom_site_fract_x
 _atom_site_fract_y
 _atom_site_fract_z
 _atom_site_occupancy
  Ir  Ir0  1  0.00000000  0.00000000  0.00000000  1
  C  C1  1  0.62175100  0.62175100  0.00000000  1
  C  C2  1  0.37824900  0.37824900  0.00000000  1
