# generated using pymatgen
data_PbCl2
_symmetry_space_group_name_H-M   'P 1'
_cell_length_a   6.81523100
_cell_length_b   6.81523100
_cell_length_c   4.48171300
_cell_angle_alpha   90.00000000
_cell_angle_beta   90.00000000
_cell_angle_gamma   90.00000000
_symmetry_Int_Tables_number   1
_chemical_formula_structural   PbCl2
_chemical_formula_sum   'Pb2 Cl4'
_cell_volume   208.16379800
_cell_formula_units_Z   2
loop_
 _symmetry_equiv_pos_site_id
 _symmetry_equiv_pos_as_xyz
  1  'x, y, z'
loop_
 _atom_site_type_symbol
 _atom_site_label
 _atom_site_symmetry_multiplicity
 _atom_site_fract_x
 _atom_site_fract_y
 _atom_site_fract_z
 _atom_site_occupancy
  Pb  Pb0  1  0.00000000  0.00000000  0.00000000  1
  Pb  Pb1  1  0.50000000  0.50000000  0.50000000  1
  Cl  Cl2  1  0.30315200  0.30315200  0.00000000  1
  Cl  Cl3  1  0.69684800  0.69684800  0.00000000  1
  Cl  Cl4  1  0.19684800  0.80315200  0.50000000  1
  Cl  Cl5  1  0.80315200  0.19684800  0.50000000  1
