# generated using pymatgen
data_SrGa12O19
_symmetry_space_group_name_H-M   'P 1'
_cell_length_a   5.87580714
_cell_length_b   5.87580714
_cell_length_c   23.13297500
_cell_angle_alpha   90.00000000
_cell_angle_beta   90.00000000
_cell_angle_gamma   119.99999029
_symmetry_Int_Tables_number   1
_chemical_formula_structural   SrGa12O19
_chemical_formula_sum   'Sr2 Ga24 O38'
_cell_volume   691.66727387
_cell_formula_units_Z   2
loop_
 _symmetry_equiv_pos_site_id
 _symmetry_equiv_pos_as_xyz
  1  'x, y, z'
loop_
 _atom_site_type_symbol
 _atom_site_label
 _atom_site_symmetry_multiplicity
 _atom_site_fract_x
 _atom_site_fract_y
 _atom_site_fract_z
 _atom_site_occupancy
  Sr  Sr0  1  0.33333300  0.66666700  0.74923100  1
  Sr  Sr1  1  0.66666700  0.33333300  0.24923100  1
  Ga  Ga2  1  0.16899800  0.83100200  0.89099900  1
  Ga  Ga3  1  0.16768800  0.83231200  0.60975600  1
  Ga  Ga4  1  0.33333300  0.66666700  0.02743900  1
  Ga  Ga5  1  0.33333300  0.66666700  0.18943900  1
  Ga  Ga6  1  0.33333300  0.66666700  0.31008600  1
  Ga  Ga7  1  0.16768800  0.33537600  0.60975600  1
  Ga  Ga8  1  0.00000000  0.00000000  0.00030100  1
  Ga  Ga9  1  0.00000000  0.00000000  0.25719000  1
  Ga  Ga10  1  0.00000000  0.00000000  0.75719000  1
  Ga  Ga11  1  0.33333300  0.66666700  0.47295900  1
  Ga  Ga12  1  0.00000000  0.00000000  0.50030100  1
  Ga  Ga13  1  0.16899800  0.33799600  0.89099900  1
  Ga  Ga14  1  0.66462400  0.83231200  0.60975600  1
  Ga  Ga15  1  0.66200400  0.83100200  0.89099900  1
  Ga  Ga16  1  0.33537600  0.16768800  0.10975600  1
  Ga  Ga17  1  0.33799600  0.16899800  0.39099900  1
  Ga  Ga18  1  0.83100200  0.66200400  0.39099900  1
  Ga  Ga19  1  0.83231200  0.66462400  0.10975600  1
  Ga  Ga20  1  0.66666700  0.33333300  0.68943900  1
  Ga  Ga21  1  0.66666700  0.33333300  0.81008600  1
  Ga  Ga22  1  0.66666700  0.33333300  0.97295900  1
  Ga  Ga23  1  0.66666700  0.33333300  0.52743900  1
  Ga  Ga24  1  0.83231200  0.16768800  0.10975600  1
  Ga  Ga25  1  0.83100200  0.16899800  0.39099900  1
  O  O26  1  0.15575000  0.84425000  0.05219800  1
  O  O27  1  0.15516400  0.84483600  0.44719500  1
  O  O28  1  0.01000100  0.50500100  0.84987100  1
  O  O29  1  0.00949200  0.50474600  0.65034100  1
  O  O30  1  0.18194400  0.81805600  0.25055900  1
  O  O31  1  0.33333300  0.66666700  0.94488800  1
  O  O32  1  0.00000000  0.00000000  0.14880700  1
  O  O33  1  0.15575000  0.31150000  0.05219800  1
  O  O34  1  0.18194400  0.36388700  0.25055900  1
  O  O35  1  0.00000000  0.00000000  0.64880700  1
  O  O36  1  0.33333300  0.66666700  0.55518000  1
  O  O37  1  0.15516400  0.31032800  0.44719500  1
  O  O38  1  0.49525400  0.99050800  0.65034100  1
  O  O39  1  0.00000000  0.00000000  0.34967900  1
  O  O40  1  0.49499900  0.98999900  0.84987100  1
  O  O41  1  0.00000000  0.00000000  0.84967900  1
  O  O42  1  0.63611300  0.81805600  0.25055900  1
  O  O43  1  0.31150000  0.15575000  0.55219800  1
  O  O44  1  0.31032800  0.15516400  0.94719500  1
  O  O45  1  0.49525400  0.50474600  0.65034100  1
  O  O46  1  0.49499900  0.50500100  0.84987100  1
  O  O47  1  0.50474600  0.49525400  0.15034100  1
  O  O48  1  0.50500100  0.49499900  0.34987100  1
  O  O49  1  0.68850000  0.84425000  0.05219800  1
  O  O50  1  0.68967200  0.84483600  0.44719500  1
  O  O51  1  0.36388700  0.18194400  0.75055900  1
  O  O52  1  0.50474600  0.00949200  0.15034100  1
  O  O53  1  0.50500100  0.01000100  0.34987100  1
  O  O54  1  0.66666700  0.33333300  0.05518000  1
  O  O55  1  0.66666700  0.33333300  0.44488800  1
  O  O56  1  0.84483600  0.68967200  0.94719500  1
  O  O57  1  0.84425000  0.68850000  0.55219800  1
  O  O58  1  0.81805600  0.63611300  0.75055900  1
  O  O59  1  0.81805600  0.18194400  0.75055900  1
  O  O60  1  0.99050800  0.49525400  0.15034100  1
  O  O61  1  0.98999900  0.49499900  0.34987100  1
  O  O62  1  0.84483600  0.15516400  0.94719500  1
  O  O63  1  0.84425000  0.15575000  0.55219800  1
