# generated using pymatgen
data_Y3Si3O10F
_symmetry_space_group_name_H-M   'P 1'
_cell_length_a   11.29627300
_cell_length_b   7.40423900
_cell_length_c   12.05977661
_cell_angle_alpha   59.73084004
_cell_angle_beta   90.00000000
_cell_angle_gamma   90.00000000
_symmetry_Int_Tables_number   1
_chemical_formula_structural   Y3Si3O10F
_chemical_formula_sum   'Y12 Si12 O40 F4'
_cell_volume   871.16655466
_cell_formula_units_Z   4
loop_
 _symmetry_equiv_pos_site_id
 _symmetry_equiv_pos_as_xyz
  1  'x, y, z'
loop_
 _atom_site_type_symbol
 _atom_site_label
 _atom_site_symmetry_multiplicity
 _atom_site_fract_x
 _atom_site_fract_y
 _atom_site_fract_z
 _atom_site_occupancy
  Y  Y0  1  0.46925100  0.74409200  0.01831200  1
  Y  Y1  1  0.96925100  0.25590800  0.48168800  1
  Y  Y2  1  0.53074900  0.25590800  0.98168800  1
  Y  Y3  1  0.03074900  0.74409200  0.51831200  1
  Y  Y4  1  0.22998100  0.59492800  0.31107500  1
  Y  Y5  1  0.72998100  0.40507200  0.18892500  1
  Y  Y6  1  0.77001900  0.40507200  0.68892500  1
  Y  Y7  1  0.27001900  0.59492800  0.81107500  1
  Y  Y8  1  0.09822300  0.80508300  0.99698100  1
  Y  Y9  1  0.59822300  0.19491700  0.50301900  1
  Y  Y10  1  0.90177700  0.19491700  0.00301900  1
  Y  Y11  1  0.40177700  0.80508300  0.49698100  1
  Si  Si12  1  0.46234700  0.28590600  0.70857300  1
  Si  Si13  1  0.75510000  0.87617400  0.88910800  1
  Si  Si14  1  0.74490000  0.87617400  0.38910800  1
  Si  Si15  1  0.24490000  0.12382600  0.11089200  1
  Si  Si16  1  0.41422400  0.28439000  0.24036300  1
  Si  Si17  1  0.91422400  0.71561000  0.25963700  1
  Si  Si18  1  0.58577600  0.71561000  0.75963700  1
  Si  Si19  1  0.08577600  0.28439000  0.74036300  1
  Si  Si20  1  0.03765300  0.28590600  0.20857300  1
  Si  Si21  1  0.53765300  0.71409400  0.29142700  1
  Si  Si22  1  0.25510000  0.12382600  0.61089200  1
  Si  Si23  1  0.96234700  0.71409400  0.79142700  1
  O  O24  1  0.08873600  0.65810100  0.86963000  1
  O  O25  1  0.58873600  0.34189900  0.63037000  1
  O  O26  1  0.91126400  0.34189900  0.13037000  1
  O  O27  1  0.41126400  0.65810100  0.36963000  1
  O  O28  1  0.47757100  0.10511100  0.86138200  1
  O  O29  1  0.97757100  0.89488900  0.63861800  1
  O  O30  1  0.52242900  0.89488900  0.13861800  1
  O  O31  1  0.02242900  0.10511100  0.36138200  1
  O  O32  1  0.10405800  0.49467800  0.19193600  1
  O  O33  1  0.60405800  0.50532200  0.30806400  1
  O  O34  1  0.89594200  0.50532200  0.80806400  1
  O  O35  1  0.39594200  0.49467800  0.69193600  1
  O  O36  1  0.39044400  0.19894200  0.62284300  1
  O  O37  1  0.89044400  0.80105800  0.87715700  1
  O  O38  1  0.60955600  0.80105800  0.37715700  1
  O  O39  1  0.10955600  0.19894200  0.12284300  1
  O  O40  1  0.35700200  0.51209000  0.19741300  1
  O  O41  1  0.27353900  0.89748900  0.62124600  1
  O  O42  1  0.72646100  0.10251100  0.37875400  1
  O  O43  1  0.22646100  0.89748900  0.12124600  1
  O  O44  1  0.18148500  0.28691700  0.48269500  1
  O  O45  1  0.68148500  0.71308300  0.01730500  1
  O  O46  1  0.81851500  0.71308300  0.51730500  1
  O  O47  1  0.31851500  0.28691700  0.98269500  1
  O  O48  1  0.17734300  0.11553100  0.73056300  1
  O  O49  1  0.67734300  0.88446900  0.76943700  1
  O  O50  1  0.82265700  0.88446900  0.26943700  1
  O  O51  1  0.32265700  0.11553100  0.23056300  1
  O  O52  1  0.02448900  0.64980200  0.36288100  1
  O  O53  1  0.52448900  0.35019800  0.13711900  1
  O  O54  1  0.97551100  0.35019800  0.63711900  1
  O  O55  1  0.47551100  0.64980200  0.86288100  1
  O  O56  1  0.04948800  0.14866600  0.89123100  1
  O  O57  1  0.54948800  0.85133400  0.60876900  1
  O  O58  1  0.95051200  0.85133400  0.10876900  1
  O  O59  1  0.45051200  0.14866600  0.39123100  1
  O  O60  1  0.14299800  0.51209000  0.69741300  1
  O  O61  1  0.64299800  0.48791000  0.80258700  1
  O  O62  1  0.85700200  0.48791000  0.30258700  1
  O  O63  1  0.77353900  0.10251100  0.87875400  1
  F  F64  1  0.71499200  0.24442800  0.05930900  1
  F  F65  1  0.21499200  0.75557200  0.44069100  1
  F  F66  1  0.78500800  0.24442800  0.55930900  1
  F  F67  1  0.28500800  0.75557200  0.94069100  1
