# generated using pymatgen
data_NdI3
_symmetry_space_group_name_H-M   'P 1'
_cell_length_a   11.32680486
_cell_length_b   11.32680486
_cell_length_c   4.12503800
_cell_angle_alpha   90.00000000
_cell_angle_beta   90.00000000
_cell_angle_gamma   120.00000502
_symmetry_Int_Tables_number   1
_chemical_formula_structural   NdI3
_chemical_formula_sum   'Nd2 I6'
_cell_volume   458.32484505
_cell_formula_units_Z   2
loop_
 _symmetry_equiv_pos_site_id
 _symmetry_equiv_pos_as_xyz
  1  'x, y, z'
loop_
 _atom_site_type_symbol
 _atom_site_label
 _atom_site_symmetry_multiplicity
 _atom_site_fract_x
 _atom_site_fract_y
 _atom_site_fract_z
 _atom_site_occupancy
  Nd  Nd0  1  0.66666700  0.33333300  0.25000000  1
  Nd  Nd1  1  0.33333300  0.66666700  0.75000000  1
  I  I2  1  0.21227800  0.42455600  0.25000000  1
  I  I3  1  0.78772200  0.21227800  0.75000000  1
  I  I4  1  0.42455600  0.21227800  0.75000000  1
  I  I5  1  0.78772200  0.57544400  0.75000000  1
  I  I6  1  0.21227800  0.78772200  0.25000000  1
  I  I7  1  0.57544400  0.78772200  0.25000000  1
