# generated using pymatgen
data_HoCl2
_symmetry_space_group_name_H-M   'P 1'
_cell_length_a   6.87110600
_cell_length_b   6.87110600
_cell_length_c   3.45947000
_cell_angle_alpha   90.00000000
_cell_angle_beta   90.00000000
_cell_angle_gamma   90.00000000
_symmetry_Int_Tables_number   1
_chemical_formula_structural   HoCl2
_chemical_formula_sum   'Ho2 Cl4'
_cell_volume   163.32883550
_cell_formula_units_Z   2
loop_
 _symmetry_equiv_pos_site_id
 _symmetry_equiv_pos_as_xyz
  1  'x, y, z'
loop_
 _atom_site_type_symbol
 _atom_site_label
 _atom_site_symmetry_multiplicity
 _atom_site_fract_x
 _atom_site_fract_y
 _atom_site_fract_z
 _atom_site_occupancy
  Ho  Ho0  1  0.00000000  0.00000000  0.00000000  1
  Ho  Ho1  1  0.50000000  0.50000000  0.50000000  1
  Cl  Cl2  1  0.28047500  0.28047500  0.00000000  1
  Cl  Cl3  1  0.71952500  0.71952500  0.00000000  1
  Cl  Cl4  1  0.21952500  0.78047500  0.50000000  1
  Cl  Cl5  1  0.78047500  0.21952500  0.50000000  1
