# generated using pymatgen
data_NaPO3
_symmetry_space_group_name_H-M   'P 1'
_cell_length_a   7.09398700
_cell_length_b   7.18402525
_cell_length_c   8.06239435
_cell_angle_alpha   94.03996453
_cell_angle_beta   103.39428731
_cell_angle_gamma   90.25338063
_symmetry_Int_Tables_number   1
_chemical_formula_structural   NaPO3
_chemical_formula_sum   'Na6 P6 O18'
_cell_volume   398.62601691
_cell_formula_units_Z   6
loop_
 _symmetry_equiv_pos_site_id
 _symmetry_equiv_pos_as_xyz
  1  'x, y, z'
loop_
 _atom_site_type_symbol
 _atom_site_label
 _atom_site_symmetry_multiplicity
 _atom_site_fract_x
 _atom_site_fract_y
 _atom_site_fract_z
 _atom_site_occupancy
  Na  Na0  1  0.57574700  0.75793100  0.80779400  1
  Na  Na1  1  0.42425300  0.24206900  0.19220600  1
  Na  Na2  1  0.05835600  0.75011200  0.78523700  1
  Na  Na3  1  0.94164400  0.24988800  0.21476300  1
  Na  Na4  1  0.25318700  0.97524300  0.51243100  1
  Na  Na5  1  0.74681300  0.02475700  0.48756900  1
  P  P6  1  0.61985500  0.23318600  0.81707700  1
  P  P7  1  0.38014500  0.76681400  0.18292300  1
  P  P8  1  0.04114700  0.23400000  0.81861900  1
  P  P9  1  0.95885300  0.76600000  0.18138100  1
  P  P10  1  0.27862200  0.44188500  0.61880700  1
  P  P11  1  0.72137800  0.55811500  0.38119300  1
  O  O12  1  0.55520400  0.05814900  0.70319200  1
  O  O13  1  0.44479600  0.94185100  0.29680800  1
  O  O14  1  0.04768600  0.05900800  0.70587900  1
  O  O15  1  0.95231400  0.94099200  0.29412100  1
  O  O16  1  0.36559600  0.76610500  0.99517300  1
  O  O17  1  0.63440400  0.23389500  0.00482700  1
  O  O18  1  0.87701600  0.76386000  0.99263200  1
  O  O19  1  0.12298400  0.23614000  0.00736800  1
  O  O20  1  0.82163800  0.30908700  0.78178900  1
  O  O21  1  0.17836200  0.69091300  0.21821100  1
  O  O22  1  0.49068200  0.40860100  0.74278400  1
  O  O23  1  0.50931800  0.59139900  0.25721600  1
  O  O24  1  0.13452400  0.40867300  0.74610000  1
  O  O25  1  0.86547600  0.59132700  0.25390000  1
  O  O26  1  0.27463400  0.64888700  0.60359100  1
  O  O27  1  0.72536600  0.35111300  0.39640900  1
  O  O28  1  0.76421400  0.69556100  0.53431100  1
  O  O29  1  0.23578600  0.30443900  0.46568900  1
