# generated using pymatgen
data_Sr2Ga2S5
_symmetry_space_group_name_H-M   'P 1'
_cell_length_a   11.30702300
_cell_length_b   12.14725800
_cell_length_c   12.65366100
_cell_angle_alpha   90.00000000
_cell_angle_beta   90.00000000
_cell_angle_gamma   90.00000000
_symmetry_Int_Tables_number   1
_chemical_formula_structural   Sr2Ga2S5
_chemical_formula_sum   'Sr16 Ga16 S40'
_cell_volume   1737.97180463
_cell_formula_units_Z   8
loop_
 _symmetry_equiv_pos_site_id
 _symmetry_equiv_pos_as_xyz
  1  'x, y, z'
loop_
 _atom_site_type_symbol
 _atom_site_label
 _atom_site_symmetry_multiplicity
 _atom_site_fract_x
 _atom_site_fract_y
 _atom_site_fract_z
 _atom_site_occupancy
  Sr  Sr0  1  0.74712800  0.25347800  0.68988400  1
  Sr  Sr1  1  0.24712800  0.74652200  0.81011600  1
  Sr  Sr2  1  0.75287200  0.75347800  0.31011600  1
  Sr  Sr3  1  0.25287200  0.24652200  0.18988400  1
  Sr  Sr4  1  0.25287200  0.74652200  0.31011600  1
  Sr  Sr5  1  0.75287200  0.25347800  0.18988400  1
  Sr  Sr6  1  0.24712800  0.24652200  0.68988400  1
  Sr  Sr7  1  0.74712800  0.75347800  0.81011600  1
  Sr  Sr8  1  0.49790300  0.47767800  0.80181500  1
  Sr  Sr9  1  0.99790300  0.52232200  0.69818500  1
  Sr  Sr10  1  0.00209700  0.97767800  0.19818500  1
  Sr  Sr11  1  0.50209700  0.02232200  0.30181500  1
  Sr  Sr12  1  0.50209700  0.52232200  0.19818500  1
  Sr  Sr13  1  0.00209700  0.47767800  0.30181500  1
  Sr  Sr14  1  0.99790300  0.02232200  0.80181500  1
  Sr  Sr15  1  0.49790300  0.97767800  0.69818500  1
  Ga  Ga16  1  0.55923200  0.29513000  0.45089500  1
  Ga  Ga17  1  0.05923200  0.70487000  0.04910500  1
  Ga  Ga18  1  0.94076800  0.79513000  0.54910500  1
  Ga  Ga19  1  0.44076800  0.20487000  0.95089500  1
  Ga  Ga20  1  0.44076800  0.70487000  0.54910500  1
  Ga  Ga21  1  0.94076800  0.29513000  0.95089500  1
  Ga  Ga22  1  0.05923200  0.20487000  0.45089500  1
  Ga  Ga23  1  0.55923200  0.79513000  0.04910500  1
  Ga  Ga24  1  0.77605200  0.53611400  0.02863300  1
  Ga  Ga25  1  0.27605200  0.46388600  0.47136700  1
  Ga  Ga26  1  0.72394800  0.03611400  0.97136700  1
  Ga  Ga27  1  0.22394800  0.96388600  0.52863300  1
  Ga  Ga28  1  0.22394800  0.46388600  0.97136700  1
  Ga  Ga29  1  0.72394800  0.53611400  0.52863300  1
  Ga  Ga30  1  0.27605200  0.96388600  0.02863300  1
  Ga  Ga31  1  0.77605200  0.03611400  0.47136700  1
  S  S32  1  0.75034600  0.36162500  0.46180700  1
  S  S33  1  0.25034600  0.63837500  0.03819300  1
  S  S34  1  0.74965400  0.86162500  0.53819300  1
  S  S35  1  0.24965400  0.13837500  0.96180700  1
  S  S36  1  0.24965400  0.63837500  0.53819300  1
  S  S37  1  0.74965400  0.36162500  0.96180700  1
  S  S38  1  0.25034600  0.13837500  0.46180700  1
  S  S39  1  0.75034600  0.86162500  0.03819300  1
  S  S40  1  0.23496000  0.48612500  0.79371200  1
  S  S41  1  0.73496000  0.51387500  0.70628800  1
  S  S42  1  0.26504000  0.98612500  0.20628800  1
  S  S43  1  0.76504000  0.01387500  0.29371200  1
  S  S44  1  0.76504000  0.51387500  0.20628800  1
  S  S45  1  0.26504000  0.48612500  0.29371200  1
  S  S46  1  0.73496000  0.01387500  0.79371200  1
  S  S47  1  0.23496000  0.98612500  0.70628800  1
  S  S48  1  0.42820800  0.38264700  0.56300500  1
  S  S49  1  0.00751700  0.22526000  0.28045600  1
  S  S50  1  0.92820800  0.61735300  0.93699500  1
  S  S51  1  0.57179200  0.11735300  0.06300500  1
  S  S52  1  0.57179200  0.61735300  0.43699500  1
  S  S53  1  0.07179200  0.38264700  0.06300500  1
  S  S54  1  0.92820800  0.11735300  0.56300500  1
  S  S55  1  0.42820800  0.88264700  0.93699500  1
  S  S56  1  0.90366900  0.11951100  0.02367900  1
  S  S57  1  0.40366900  0.88048900  0.47632100  1
  S  S58  1  0.59633100  0.61951100  0.97632100  1
  S  S59  1  0.09633100  0.38048900  0.52367900  1
  S  S60  1  0.09633100  0.88048900  0.97632100  1
  S  S61  1  0.59633100  0.11951100  0.52367900  1
  S  S62  1  0.40366900  0.38048900  0.02367900  1
  S  S63  1  0.90366900  0.61951100  0.47632100  1
  S  S64  1  0.00751700  0.72526000  0.21954400  1
  S  S65  1  0.50751700  0.27474000  0.28045600  1
  S  S66  1  0.49248300  0.22526000  0.78045600  1
  S  S67  1  0.99248300  0.77474000  0.71954400  1
  S  S68  1  0.99248300  0.27474000  0.78045600  1
  S  S69  1  0.49248300  0.72526000  0.71954400  1
  S  S70  1  0.50751700  0.77474000  0.21954400  1
  S  S71  1  0.07179200  0.88264700  0.43699500  1
