# generated using pymatgen
data_SF6
_symmetry_space_group_name_H-M   'P 1'
_cell_length_a   8.46569618
_cell_length_b   8.46569618
_cell_length_c   4.90114900
_cell_angle_alpha   90.00000000
_cell_angle_beta   90.00000000
_cell_angle_gamma   120.00000138
_symmetry_Int_Tables_number   1
_chemical_formula_structural   SF6
_chemical_formula_sum   'S3 F18'
_cell_volume   304.19627215
_cell_formula_units_Z   3
loop_
 _symmetry_equiv_pos_site_id
 _symmetry_equiv_pos_as_xyz
  1  'x, y, z'
loop_
 _atom_site_type_symbol
 _atom_site_label
 _atom_site_symmetry_multiplicity
 _atom_site_fract_x
 _atom_site_fract_y
 _atom_site_fract_z
 _atom_site_occupancy
  S  S0  1  0.66666700  0.33333300  0.44676700  1
  S  S1  1  0.33333300  0.66666700  0.55323300  1
  S  S2  1  0.00000000  0.00000000  0.00000000  1
  F  F3  1  0.24439900  0.75560100  0.36508700  1
  F  F4  1  0.24439900  0.48879800  0.36508700  1
  F  F5  1  0.51120200  0.75560100  0.36508700  1
  F  F6  1  0.08892200  0.91107800  0.81188400  1
  F  F7  1  0.08892200  0.17784300  0.81188400  1
  F  F8  1  0.82215700  0.91107800  0.81188400  1
  F  F9  1  0.17784300  0.08892200  0.18811600  1
  F  F10  1  0.91107800  0.82215700  0.18811600  1
  F  F11  1  0.91107800  0.08892200  0.18811600  1
  F  F12  1  0.42224500  0.57775500  0.74148400  1
  F  F13  1  0.42224500  0.84449100  0.74148400  1
  F  F14  1  0.15550900  0.57775500  0.74148400  1
  F  F15  1  0.84449100  0.42224500  0.25851600  1
  F  F16  1  0.57775500  0.15550900  0.25851600  1
  F  F17  1  0.57775500  0.42224500  0.25851600  1
  F  F18  1  0.75560100  0.24439900  0.63491300  1
  F  F19  1  0.75560100  0.51120200  0.63491300  1
  F  F20  1  0.48879800  0.24439900  0.63491300  1
