# generated using pymatgen
data_Li2PrTl
_symmetry_space_group_name_H-M   'P 1'
_cell_length_a   4.98970324
_cell_length_b   4.98970324
_cell_length_c   4.98970324
_cell_angle_alpha   60.00000000
_cell_angle_beta   60.00000000
_cell_angle_gamma   60.00000000
_symmetry_Int_Tables_number   1
_chemical_formula_structural   Li2PrTl
_chemical_formula_sum   'Li2 Pr1 Tl1'
_cell_volume   87.84340348
_cell_formula_units_Z   1
loop_
 _symmetry_equiv_pos_site_id
 _symmetry_equiv_pos_as_xyz
  1  'x, y, z'
loop_
 _atom_site_type_symbol
 _atom_site_label
 _atom_site_symmetry_multiplicity
 _atom_site_fract_x
 _atom_site_fract_y
 _atom_site_fract_z
 _atom_site_occupancy
  Li  Li0  1  0.25000000  0.25000000  0.25000000  1
  Li  Li1  1  0.75000000  0.75000000  0.75000000  1
  Pr  Pr2  1  0.50000000  0.50000000  0.50000000  1
  Tl  Tl3  1  0.00000000  0.00000000  0.00000000  1
