# generated using pymatgen
data_LiMg2
_symmetry_space_group_name_H-M   'P 1'
_cell_length_a   5.75583173
_cell_length_b   5.75583173
_cell_length_c   5.75583173
_cell_angle_alpha   144.96004284
_cell_angle_beta   144.96004284
_cell_angle_gamma   50.39407363
_symmetry_Int_Tables_number   1
_chemical_formula_structural   LiMg2
_chemical_formula_sum   'Li1 Mg2'
_cell_volume   62.54664368
_cell_formula_units_Z   1
loop_
 _symmetry_equiv_pos_site_id
 _symmetry_equiv_pos_as_xyz
  1  'x, y, z'
loop_
 _atom_site_type_symbol
 _atom_site_label
 _atom_site_symmetry_multiplicity
 _atom_site_fract_x
 _atom_site_fract_y
 _atom_site_fract_z
 _atom_site_occupancy
  Li  Li0  1  0.00000000  0.00000000  0.00000000  1
  Mg  Mg1  1  0.34094000  0.34094000  0.00000000  1
  Mg  Mg2  1  0.65906000  0.65906000  0.00000000  1
