# generated using pymatgen
data_K6CoS4
_symmetry_space_group_name_H-M   'P 1'
_cell_length_a   9.80833811
_cell_length_b   9.80833811
_cell_length_c   7.71733100
_cell_angle_alpha   90.00000000
_cell_angle_beta   90.00000000
_cell_angle_gamma   120.00000072
_symmetry_Int_Tables_number   1
_chemical_formula_structural   K6CoS4
_chemical_formula_sum   'K12 Co2 S8'
_cell_volume   642.96689499
_cell_formula_units_Z   2
loop_
 _symmetry_equiv_pos_site_id
 _symmetry_equiv_pos_as_xyz
  1  'x, y, z'
loop_
 _atom_site_type_symbol
 _atom_site_label
 _atom_site_symmetry_multiplicity
 _atom_site_fract_x
 _atom_site_fract_y
 _atom_site_fract_z
 _atom_site_occupancy
  K  K0  1  0.52934500  0.05868900  0.36640700  1
  K  K1  1  0.47065500  0.52934500  0.86640700  1
  K  K2  1  0.94131100  0.47065500  0.36640700  1
  K  K3  1  0.52934500  0.47065500  0.36640700  1
  K  K4  1  0.14661800  0.85338200  0.54243500  1
  K  K5  1  0.29323500  0.14661800  0.04243500  1
  K  K6  1  0.05868900  0.52934500  0.86640700  1
  K  K7  1  0.85338200  0.70676500  0.04243500  1
  K  K8  1  0.85338200  0.14661800  0.04243500  1
  K  K9  1  0.70676500  0.85338200  0.54243500  1
  K  K10  1  0.14661800  0.29323500  0.54243500  1
  K  K11  1  0.47065500  0.94131100  0.86640700  1
  Co  Co12  1  0.66666700  0.33333300  0.75269400  1
  Co  Co13  1  0.33333300  0.66666700  0.25269400  1
  S  S14  1  0.79961600  0.20038400  0.65611000  1
  S  S15  1  0.59923300  0.79961600  0.15611000  1
  S  S16  1  0.20038400  0.40076700  0.15611000  1
  S  S17  1  0.79961600  0.59923300  0.65611000  1
  S  S18  1  0.40076700  0.20038400  0.65611000  1
  S  S19  1  0.20038400  0.79961600  0.15611000  1
  S  S20  1  0.66666700  0.33333300  0.05955000  1
  S  S21  1  0.33333300  0.66666700  0.55955000  1
