# generated using pymatgen
data_K6CoSe4
_symmetry_space_group_name_H-M   'P 1'
_cell_length_a   10.21702371
_cell_length_b   10.21702371
_cell_length_c   8.01614000
_cell_angle_alpha   90.00000000
_cell_angle_beta   90.00000000
_cell_angle_gamma   119.99999812
_symmetry_Int_Tables_number   1
_chemical_formula_structural   K6CoSe4
_chemical_formula_sum   'K12 Co2 Se8'
_cell_volume   724.67743052
_cell_formula_units_Z   2
loop_
 _symmetry_equiv_pos_site_id
 _symmetry_equiv_pos_as_xyz
  1  'x, y, z'
loop_
 _atom_site_type_symbol
 _atom_site_label
 _atom_site_symmetry_multiplicity
 _atom_site_fract_x
 _atom_site_fract_y
 _atom_site_fract_z
 _atom_site_occupancy
  K  K0  1  0.14668400  0.85331600  0.54341700  1
  K  K1  1  0.29336800  0.14668400  0.04341700  1
  K  K2  1  0.85331600  0.70663200  0.04341700  1
  K  K3  1  0.14668400  0.29336800  0.54341700  1
  K  K4  1  0.70663200  0.85331600  0.54341700  1
  K  K5  1  0.85331600  0.14668400  0.04341700  1
  K  K6  1  0.52815800  0.47184200  0.36637200  1
  K  K7  1  0.05631700  0.52815800  0.86637200  1
  K  K8  1  0.47184200  0.94368300  0.86637200  1
  K  K9  1  0.52815800  0.05631700  0.36637200  1
  K  K10  1  0.94368300  0.47184200  0.36637200  1
  K  K11  1  0.47184200  0.52815800  0.86637200  1
  Co  Co12  1  0.33333300  0.66666700  0.25264200  1
  Co  Co13  1  0.66666700  0.33333300  0.75264200  1
  Se  Se14  1  0.33333300  0.66666700  0.56330200  1
  Se  Se15  1  0.66666700  0.33333300  0.06330200  1
  Se  Se16  1  0.19892900  0.80107100  0.15479700  1
  Se  Se17  1  0.39785700  0.19892900  0.65479700  1
  Se  Se18  1  0.80107100  0.60214300  0.65479700  1
  Se  Se19  1  0.19892900  0.39785700  0.15479700  1
  Se  Se20  1  0.60214300  0.80107100  0.15479700  1
  Se  Se21  1  0.80107100  0.19892900  0.65479700  1
