# generated using pymatgen
data_Ca2SnS4
_symmetry_space_group_name_H-M   'P 1'
_cell_length_a   8.32653900
_cell_length_b   7.91522400
_cell_length_c   11.06532605
_cell_angle_alpha   68.12478403
_cell_angle_beta   90.00000000
_cell_angle_gamma   90.00000000
_symmetry_Int_Tables_number   1
_chemical_formula_structural   Ca2SnS4
_chemical_formula_sum   'Ca8 Sn4 S16'
_cell_volume   676.76634853
_cell_formula_units_Z   4
loop_
 _symmetry_equiv_pos_site_id
 _symmetry_equiv_pos_as_xyz
  1  'x, y, z'
loop_
 _atom_site_type_symbol
 _atom_site_label
 _atom_site_symmetry_multiplicity
 _atom_site_fract_x
 _atom_site_fract_y
 _atom_site_fract_z
 _atom_site_occupancy
  Ca  Ca0  1  0.18756500  0.03365500  0.64729300  1
  Ca  Ca1  1  0.68756500  0.96634500  0.85270700  1
  Ca  Ca2  1  0.81243500  0.96634500  0.35270700  1
  Ca  Ca3  1  0.31243500  0.03365500  0.14729300  1
  Ca  Ca4  1  0.12639600  0.43813500  0.82766300  1
  Ca  Ca5  1  0.62639600  0.56186500  0.67233700  1
  Ca  Ca6  1  0.87360400  0.56186500  0.17233700  1
  Ca  Ca7  1  0.37360400  0.43813500  0.32766300  1
  Sn  Sn8  1  0.18138100  0.69731200  0.48453400  1
  Sn  Sn9  1  0.68138100  0.30268800  0.01546600  1
  Sn  Sn10  1  0.81861900  0.30268800  0.51546600  1
  Sn  Sn11  1  0.31861900  0.69731200  0.98453400  1
  S  S12  1  0.02798800  0.24044600  0.38867500  1
  S  S13  1  0.52798800  0.75955400  0.11132500  1
  S  S14  1  0.97201200  0.75955400  0.61132500  1
  S  S15  1  0.47201200  0.24044600  0.88867500  1
  S  S16  1  0.10717100  0.73166700  0.26598900  1
  S  S17  1  0.60717100  0.26833300  0.23401100  1
  S  S18  1  0.89282900  0.26833300  0.73401100  1
  S  S19  1  0.39282900  0.73166700  0.76598900  1
  S  S20  1  0.12646400  0.93479600  0.92592500  1
  S  S21  1  0.62646400  0.06520400  0.57407500  1
  S  S22  1  0.87353600  0.06520400  0.07407500  1
  S  S23  1  0.37353600  0.93479600  0.42592500  1
  S  S24  1  0.18728800  0.40646400  0.09517100  1
  S  S25  1  0.68728800  0.59353600  0.40482900  1
  S  S26  1  0.81271200  0.59353600  0.90482900  1
  S  S27  1  0.31271200  0.40646400  0.59517100  1
