# generated using pymatgen
data_CaSnS3
_symmetry_space_group_name_H-M   'P 1'
_cell_length_a   6.55117300
_cell_length_b   6.91507400
_cell_length_c   10.30842000
_cell_angle_alpha   90.00000000
_cell_angle_beta   90.00000000
_cell_angle_gamma   90.00000000
_symmetry_Int_Tables_number   1
_chemical_formula_structural   CaSnS3
_chemical_formula_sum   'Ca4 Sn4 S12'
_cell_volume   466.99045619
_cell_formula_units_Z   4
loop_
 _symmetry_equiv_pos_site_id
 _symmetry_equiv_pos_as_xyz
  1  'x, y, z'
loop_
 _atom_site_type_symbol
 _atom_site_label
 _atom_site_symmetry_multiplicity
 _atom_site_fract_x
 _atom_site_fract_y
 _atom_site_fract_z
 _atom_site_occupancy
  Ca  Ca0  1  0.76215200  0.25000000  0.91130100  1
  Ca  Ca1  1  0.26215200  0.25000000  0.58869900  1
  Ca  Ca2  1  0.23784800  0.75000000  0.08869900  1
  Ca  Ca3  1  0.73784800  0.75000000  0.41130100  1
  Sn  Sn4  1  0.12517500  0.25000000  0.24668200  1
  Sn  Sn5  1  0.62517500  0.25000000  0.25331800  1
  Sn  Sn6  1  0.87482500  0.75000000  0.75331800  1
  Sn  Sn7  1  0.37482500  0.75000000  0.74668200  1
  S  S8  1  0.89580500  0.25000000  0.44418800  1
  S  S9  1  0.39580500  0.25000000  0.05581200  1
  S  S10  1  0.10419500  0.75000000  0.55581200  1
  S  S11  1  0.60419500  0.75000000  0.94418800  1
  S  S12  1  0.88664800  0.50229000  0.15517500  1
  S  S13  1  0.38664800  0.99771000  0.34482500  1
  S  S14  1  0.11335200  0.00229000  0.84482500  1
  S  S15  1  0.61335200  0.49771000  0.65517500  1
  S  S16  1  0.11335200  0.49771000  0.84482500  1
  S  S17  1  0.61335200  0.00229000  0.65517500  1
  S  S18  1  0.88664800  0.99771000  0.15517500  1
  S  S19  1  0.38664800  0.50229000  0.34482500  1
