# generated using pymatgen
data_Ca2SnS4
_symmetry_space_group_name_H-M   'P 1'
_cell_length_a   7.27493400
_cell_length_b   8.29137400
_cell_length_c   12.39611200
_cell_angle_alpha   90.00000000
_cell_angle_beta   90.00000000
_cell_angle_gamma   90.00000000
_symmetry_Int_Tables_number   1
_chemical_formula_structural   Ca2SnS4
_chemical_formula_sum   'Ca8 Sn4 S16'
_cell_volume   747.72354184
_cell_formula_units_Z   4
loop_
 _symmetry_equiv_pos_site_id
 _symmetry_equiv_pos_as_xyz
  1  'x, y, z'
loop_
 _atom_site_type_symbol
 _atom_site_label
 _atom_site_symmetry_multiplicity
 _atom_site_fract_x
 _atom_site_fract_y
 _atom_site_fract_z
 _atom_site_occupancy
  Ca  Ca0  1  0.25000000  0.43901400  0.82786800  1
  Ca  Ca1  1  0.25000000  0.93901400  0.67213200  1
  Ca  Ca2  1  0.75000000  0.56098600  0.17213200  1
  Ca  Ca3  1  0.75000000  0.06098600  0.32786800  1
  Ca  Ca4  1  0.25000000  0.09630100  0.03869500  1
  Ca  Ca5  1  0.25000000  0.59630100  0.46130500  1
  Ca  Ca6  1  0.75000000  0.90369900  0.96130500  1
  Ca  Ca7  1  0.75000000  0.40369900  0.53869500  1
  Sn  Sn8  1  0.25000000  0.20446500  0.43856400  1
  Sn  Sn9  1  0.25000000  0.70446500  0.06143600  1
  Sn  Sn10  1  0.75000000  0.79553500  0.56143600  1
  Sn  Sn11  1  0.75000000  0.29553500  0.93856400  1
  S  S12  1  0.49426000  0.14684300  0.86390800  1
  S  S13  1  0.00574000  0.64684300  0.63609200  1
  S  S14  1  0.99426000  0.85315700  0.13609200  1
  S  S15  1  0.50574000  0.35315700  0.36390800  1
  S  S16  1  0.50574000  0.85315700  0.13609200  1
  S  S17  1  0.99426000  0.35315700  0.36390800  1
  S  S18  1  0.00574000  0.14684300  0.86390800  1
  S  S19  1  0.49426000  0.64684300  0.63609200  1
  S  S20  1  0.25000000  0.42233900  0.06594400  1
  S  S21  1  0.25000000  0.92233900  0.43405600  1
  S  S22  1  0.75000000  0.57766100  0.93405600  1
  S  S23  1  0.75000000  0.07766100  0.56594400  1
  S  S24  1  0.25000000  0.27394500  0.62629300  1
  S  S25  1  0.25000000  0.77394500  0.87370700  1
  S  S26  1  0.75000000  0.72605500  0.37370700  1
  S  S27  1  0.75000000  0.22605500  0.12629300  1
