# generated using pymatgen
data_PuO2
_symmetry_space_group_name_H-M   'P 1'
_cell_length_a   5.07981300
_cell_length_b   5.07981300
_cell_length_c   3.54583900
_cell_angle_alpha   90.00000000
_cell_angle_beta   90.00000000
_cell_angle_gamma   90.00000000
_symmetry_Int_Tables_number   1
_chemical_formula_structural   PuO2
_chemical_formula_sum   'Pu2 O4'
_cell_volume   91.49860288
_cell_formula_units_Z   2
loop_
 _symmetry_equiv_pos_site_id
 _symmetry_equiv_pos_as_xyz
  1  'x, y, z'
loop_
 _atom_site_type_symbol
 _atom_site_label
 _atom_site_symmetry_multiplicity
 _atom_site_fract_x
 _atom_site_fract_y
 _atom_site_fract_z
 _atom_site_occupancy
  Pu  Pu0  1  0.50000000  0.50000000  0.00000000  1
  Pu  Pu1  1  0.00000000  0.00000000  0.50000000  1
  O  O2  1  0.81069400  0.81069400  0.00000000  1
  O  O3  1  0.18930600  0.18930600  0.00000000  1
  O  O4  1  0.68930600  0.31069400  0.50000000  1
  O  O5  1  0.31069400  0.68930600  0.50000000  1
