# generated using pymatgen
data_TeBr2
_symmetry_space_group_name_H-M   'P 1'
_cell_length_a   8.62013000
_cell_length_b   8.62013000
_cell_length_c   3.93463500
_cell_angle_alpha   90.00000000
_cell_angle_beta   90.00000000
_cell_angle_gamma   90.00000000
_symmetry_Int_Tables_number   1
_chemical_formula_structural   TeBr2
_chemical_formula_sum   'Te2 Br4'
_cell_volume   292.36951126
_cell_formula_units_Z   2
loop_
 _symmetry_equiv_pos_site_id
 _symmetry_equiv_pos_as_xyz
  1  'x, y, z'
loop_
 _atom_site_type_symbol
 _atom_site_label
 _atom_site_symmetry_multiplicity
 _atom_site_fract_x
 _atom_site_fract_y
 _atom_site_fract_z
 _atom_site_occupancy
  Te  Te0  1  0.00000000  0.00000000  0.00000000  1
  Te  Te1  1  0.50000000  0.50000000  0.50000000  1
  Br  Br2  1  0.33661800  0.33661800  0.00000000  1
  Br  Br3  1  0.66338200  0.66338200  0.00000000  1
  Br  Br4  1  0.16338200  0.83661800  0.50000000  1
  Br  Br5  1  0.83661800  0.16338200  0.50000000  1
