# generated using pymatgen
data_Ca2Tl2O5
_symmetry_space_group_name_H-M   'P 1'
_cell_length_a   13.74608400
_cell_length_b   5.89994300
_cell_length_c   6.75059716
_cell_angle_alpha   73.47805612
_cell_angle_beta   90.00000000
_cell_angle_gamma   90.00000000
_symmetry_Int_Tables_number   1
_chemical_formula_structural   Ca2Tl2O5
_chemical_formula_sum   'Ca8 Tl8 O20'
_cell_volume   524.87593529
_cell_formula_units_Z   4
loop_
 _symmetry_equiv_pos_site_id
 _symmetry_equiv_pos_as_xyz
  1  'x, y, z'
loop_
 _atom_site_type_symbol
 _atom_site_label
 _atom_site_symmetry_multiplicity
 _atom_site_fract_x
 _atom_site_fract_y
 _atom_site_fract_z
 _atom_site_occupancy
  Ca  Ca0  1  0.11221600  0.54104500  0.86519800  1
  Ca  Ca1  1  0.75860100  0.94596400  0.76293400  1
  Ca  Ca2  1  0.88778400  0.45895500  0.13480200  1
  Ca  Ca3  1  0.24139900  0.05403600  0.23706600  1
  Ca  Ca4  1  0.38778400  0.54104500  0.36519800  1
  Ca  Ca5  1  0.74139900  0.94596400  0.26293400  1
  Ca  Ca6  1  0.25860100  0.05403600  0.73706600  1
  Ca  Ca7  1  0.61221600  0.45895500  0.63480200  1
  Tl  Tl8  1  0.38431200  0.53942100  0.86415100  1
  Tl  Tl9  1  0.00000000  0.00000000  0.00000000  1
  Tl  Tl10  1  0.61568800  0.46057900  0.13584900  1
  Tl  Tl11  1  0.50000000  0.00000000  0.00000000  1
  Tl  Tl12  1  0.11568800  0.53942100  0.36415100  1
  Tl  Tl13  1  0.50000000  0.00000000  0.50000000  1
  Tl  Tl14  1  0.88431200  0.46057900  0.63584900  1
  Tl  Tl15  1  0.00000000  0.00000000  0.50000000  1
  O  O16  1  0.64447700  0.17122200  0.95913200  1
  O  O17  1  0.85583300  0.16344600  0.96126300  1
  O  O18  1  0.25370400  0.33480800  0.91746700  1
  O  O19  1  0.94972100  0.72142300  0.81964300  1
  O  O20  1  0.53828000  0.70831000  0.82188500  1
  O  O21  1  0.05027900  0.27857700  0.18035700  1
  O  O22  1  0.74629600  0.66519200  0.08253300  1
  O  O23  1  0.35552300  0.82877800  0.04086800  1
  O  O24  1  0.14416700  0.83655400  0.03873700  1
  O  O25  1  0.46172000  0.29169000  0.17811500  1
  O  O26  1  0.85552300  0.17122200  0.45913200  1
  O  O27  1  0.64416700  0.16344600  0.46126300  1
  O  O28  1  0.55027900  0.72142300  0.31964300  1
  O  O29  1  0.24629600  0.33480800  0.41746700  1
  O  O30  1  0.96172000  0.70831000  0.32188500  1
  O  O31  1  0.03828000  0.29169000  0.67811500  1
  O  O32  1  0.44972100  0.27857700  0.68035700  1
  O  O33  1  0.14447700  0.82877800  0.54086800  1
  O  O34  1  0.35583300  0.83655400  0.53873700  1
  O  O35  1  0.75370400  0.66519200  0.58253300  1
