# generated using pymatgen
data_Sm27Y5O48
_symmetry_space_group_name_H-M   'P 1'
_cell_length_a   9.48045500
_cell_length_b   9.49298875
_cell_length_c   15.49796564
_cell_angle_alpha   90.02749975
_cell_angle_beta   90.01727232
_cell_angle_gamma   109.46098090
_symmetry_Int_Tables_number   1
_chemical_formula_structural   Sm27Y5O48
_chemical_formula_sum   'Sm27 Y5 O48'
_cell_volume   1315.09737610
_cell_formula_units_Z   1
loop_
 _symmetry_equiv_pos_site_id
 _symmetry_equiv_pos_as_xyz
  1  'x, y, z'
loop_
 _atom_site_type_symbol
 _atom_site_label
 _atom_site_symmetry_multiplicity
 _atom_site_fract_x
 _atom_site_fract_y
 _atom_site_fract_z
 _atom_site_occupancy
  Sm  Sm0  1  0.60791800  0.89102500  0.64152900  1
  Sm  Sm1  1  0.40842100  0.15796800  0.62506600  1
  Sm  Sm2  1  0.59157900  0.84203200  0.37493400  1
  Sm  Sm3  1  0.98343700  0.01601300  0.73412100  1
  Sm  Sm4  1  0.73332700  0.26691100  0.48370200  1
  Sm  Sm5  1  0.64000900  0.85959700  0.11005000  1
  Sm  Sm6  1  0.00000000  0.00000000  0.50000000  1
  Sm  Sm7  1  0.14220700  0.36007000  0.60936500  1
  Sm  Sm8  1  0.39208200  0.10897500  0.35847100  1
  Sm  Sm9  1  0.26667300  0.73308900  0.51629800  1
  Sm  Sm10  1  0.01656300  0.98398700  0.26587900  1
  Sm  Sm11  1  0.90730000  0.65581400  0.62510200  1
  Sm  Sm12  1  0.40811200  0.15591900  0.12543400  1
  Sm  Sm13  1  0.09270000  0.34418600  0.37489800  1
  Sm  Sm14  1  0.59188800  0.84408100  0.87456600  1
  Sm  Sm15  1  0.48282500  0.51536600  0.23490800  1
  Sm  Sm16  1  0.23359900  0.76517400  0.98370300  1
  Sm  Sm17  1  0.00000000  0.00000000  0.00000000  1
  Sm  Sm18  1  0.50000000  0.50000000  0.00000000  1
  Sm  Sm19  1  0.35999100  0.14040300  0.88995000  1
  Sm  Sm20  1  0.85779300  0.63993000  0.39063500  1
  Sm  Sm21  1  0.10825700  0.39189200  0.14190600  1
  Sm  Sm22  1  0.76640100  0.23482600  0.01629700  1
  Sm  Sm23  1  0.51717500  0.48463400  0.76509200  1
  Sm  Sm24  1  0.90725000  0.65648100  0.12620300  1
  Sm  Sm25  1  0.09275000  0.34351900  0.87379700  1
  Sm  Sm26  1  0.89174300  0.60810800  0.85809400  1
  Y  Y27  1  0.75021800  0.24994000  0.74967200  1
  Y  Y28  1  0.24988200  0.75037400  0.74973700  1
  Y  Y29  1  0.50000000  0.50000000  0.50000000  1
  Y  Y30  1  0.75011800  0.24962600  0.25026300  1
  Y  Y31  1  0.24978200  0.75006000  0.25032800  1
  O  O32  1  0.35712500  0.89920700  0.63147900  1
  O  O33  1  0.01910300  0.78575800  0.75544000  1
  O  O34  1  0.65814900  0.14668500  0.61609700  1
  O  O35  1  0.39835600  0.40829300  0.63302400  1
  O  O36  1  0.34185100  0.85331500  0.38390300  1
  O  O37  1  0.03466200  0.76398900  0.49430100  1
  O  O38  1  0.15004500  0.10957800  0.62062900  1
  O  O39  1  0.64287500  0.10079300  0.36852100  1
  O  O40  1  0.47352600  0.24815900  0.48458700  1
  O  O41  1  0.00069600  0.27602200  0.73435600  1
  O  O42  1  0.84431400  0.87339200  0.61495500  1
  O  O43  1  0.50044400  0.77563400  0.23530900  1
  O  O44  1  0.62764700  0.09657200  0.13804600  1
  O  O45  1  0.12736300  0.59617000  0.63747100  1
  O  O46  1  0.52647400  0.75184100  0.51541300  1
  O  O47  1  0.15568600  0.12660800  0.38504500  1
  O  O48  1  0.25442800  0.49033800  0.47956900  1
  O  O49  1  0.26035000  0.99559800  0.22911400  1
  O  O50  1  0.76061600  0.49535400  0.72887700  1
  O  O51  1  0.74997000  0.99166400  0.97994300  1
  O  O52  1  0.84995500  0.89042200  0.37937100  1
  O  O53  1  0.60164400  0.59170700  0.36697600  1
  O  O54  1  0.51964100  0.28561400  0.25572600  1
  O  O55  1  0.96533800  0.23601100  0.50569900  1
  O  O56  1  0.98089700  0.21424200  0.24456000  1
  O  O57  1  0.89458300  0.90576700  0.13514700  1
  O  O58  1  0.53522400  0.26508400  0.99441700  1
  O  O59  1  0.25003000  0.00833600  0.02005700  1
  O  O60  1  0.64890700  0.60882500  0.12114400  1
  O  O61  1  0.73965000  0.00440200  0.77088600  1
  O  O62  1  0.74557200  0.50966200  0.52043100  1
  O  O63  1  0.23938400  0.50464600  0.27112300  1
  O  O64  1  0.97309400  0.74308300  0.98553600  1
  O  O65  1  0.87263700  0.40383000  0.36252900  1
  O  O66  1  0.34388400  0.37280200  0.11525200  1
  O  O67  1  0.37235300  0.90342800  0.86195400  1
  O  O68  1  0.02690600  0.25691700  0.01446400  1
  O  O69  1  0.99930400  0.72397800  0.26564400  1
  O  O70  1  0.49955600  0.22436600  0.76469100  1
  O  O71  1  0.65611600  0.62719800  0.88474800  1
  O  O72  1  0.35109300  0.39117500  0.87885600  1
  O  O73  1  0.85675200  0.39889800  0.13256500  1
  O  O74  1  0.10541700  0.09423300  0.86485300  1
  O  O75  1  0.15849400  0.64718500  0.11693200  1
  O  O76  1  0.46477600  0.73491600  0.00558300  1
  O  O77  1  0.84150600  0.35281500  0.88306800  1
  O  O78  1  0.48035900  0.71438600  0.74427400  1
  O  O79  1  0.14324800  0.60110200  0.86743500  1
