# generated using pymatgen
data_VPd3
_symmetry_space_group_name_H-M   'P 1'
_cell_length_a   4.78816438
_cell_length_b   4.78816438
_cell_length_c   4.78816438
_cell_angle_alpha   132.17422807
_cell_angle_beta   132.17422807
_cell_angle_gamma   69.95399141
_symmetry_Int_Tables_number   1
_chemical_formula_structural   VPd3
_chemical_formula_sum   'V1 Pd3'
_cell_volume   59.11640996
_cell_formula_units_Z   1
loop_
 _symmetry_equiv_pos_site_id
 _symmetry_equiv_pos_as_xyz
  1  'x, y, z'
loop_
 _atom_site_type_symbol
 _atom_site_label
 _atom_site_symmetry_multiplicity
 _atom_site_fract_x
 _atom_site_fract_y
 _atom_site_fract_z
 _atom_site_occupancy
  V  V0  1  0.00000000  0.00000000  0.00000000  1
  Pd  Pd1  1  0.75000000  0.25000000  0.50000000  1
  Pd  Pd2  1  0.25000000  0.75000000  0.50000000  1
  Pd  Pd3  1  0.50000000  0.50000000  0.00000000  1
