# generated using pymatgen
data_Er2S2O
_symmetry_space_group_name_H-M   'P 1'
_cell_length_a   6.84030900
_cell_length_b   6.82648800
_cell_length_c   8.22397988
_cell_angle_alpha   80.55966401
_cell_angle_beta   90.00000000
_cell_angle_gamma   90.00000000
_symmetry_Int_Tables_number   1
_chemical_formula_structural   Er2S2O
_chemical_formula_sum   'Er8 S8 O4'
_cell_volume   378.82028118
_cell_formula_units_Z   4
loop_
 _symmetry_equiv_pos_site_id
 _symmetry_equiv_pos_as_xyz
  1  'x, y, z'
loop_
 _atom_site_type_symbol
 _atom_site_label
 _atom_site_symmetry_multiplicity
 _atom_site_fract_x
 _atom_site_fract_y
 _atom_site_fract_z
 _atom_site_occupancy
  Er  Er0  1  0.05350000  0.24953900  0.86136900  1
  Er  Er1  1  0.55350000  0.25046100  0.13863100  1
  Er  Er2  1  0.94650000  0.75046100  0.13863100  1
  Er  Er3  1  0.44650000  0.74953900  0.86136900  1
  Er  Er4  1  0.14480600  0.32294800  0.42462700  1
  Er  Er5  1  0.64480600  0.17705200  0.57537300  1
  Er  Er6  1  0.85519400  0.67705200  0.57537300  1
  Er  Er7  1  0.35519400  0.82294800  0.42462700  1
  S  S8  1  0.77721100  0.53045500  0.92499800  1
  S  S9  1  0.27721100  0.96954500  0.07500200  1
  S  S10  1  0.22278900  0.46954500  0.07500200  1
  S  S11  1  0.72278900  0.03045500  0.92499800  1
  S  S12  1  0.86758900  0.07894800  0.31906600  1
  S  S13  1  0.36758900  0.42105200  0.68093400  1
  S  S14  1  0.13241100  0.92105200  0.68093400  1
  S  S15  1  0.63241100  0.57894800  0.31906600  1
  O  O16  1  0.58722000  0.85028400  0.61688400  1
  O  O17  1  0.08722000  0.64971600  0.38311600  1
  O  O18  1  0.41278000  0.14971600  0.38311600  1
  O  O19  1  0.91278000  0.35028400  0.61688400  1
