# generated using pymatgen
data_KZrPdF7
_symmetry_space_group_name_H-M   'P 1'
_cell_length_a   6.53202100
_cell_length_b   8.13593600
_cell_length_c   11.60789000
_cell_angle_alpha   90.00000000
_cell_angle_beta   90.00000000
_cell_angle_gamma   90.00000000
_symmetry_Int_Tables_number   1
_chemical_formula_structural   KZrPdF7
_chemical_formula_sum   'K4 Zr4 Pd4 F28'
_cell_volume   616.89092274
_cell_formula_units_Z   4
loop_
 _symmetry_equiv_pos_site_id
 _symmetry_equiv_pos_as_xyz
  1  'x, y, z'
loop_
 _atom_site_type_symbol
 _atom_site_label
 _atom_site_symmetry_multiplicity
 _atom_site_fract_x
 _atom_site_fract_y
 _atom_site_fract_z
 _atom_site_occupancy
  K  K0  1  0.26844900  0.00000000  0.25000000  1
  K  K1  1  0.73155100  0.00000000  0.75000000  1
  K  K2  1  0.23155100  0.50000000  0.25000000  1
  K  K3  1  0.76844900  0.50000000  0.75000000  1
  Zr  Zr4  1  0.75000000  0.25000000  0.09208400  1
  Zr  Zr5  1  0.25000000  0.25000000  0.59208400  1
  Zr  Zr6  1  0.25000000  0.75000000  0.90791600  1
  Zr  Zr7  1  0.75000000  0.75000000  0.40791600  1
  Pd  Pd8  1  0.75000000  0.75000000  0.09916100  1
  Pd  Pd9  1  0.25000000  0.25000000  0.90083900  1
  Pd  Pd10  1  0.25000000  0.75000000  0.59916100  1
  Pd  Pd11  1  0.75000000  0.25000000  0.40083900  1
  F  F12  1  0.94832800  0.18055500  0.54594700  1
  F  F13  1  0.94832800  0.81944500  0.95405300  1
  F  F14  1  0.55167200  0.68055500  0.95405300  1
  F  F15  1  0.55167200  0.31944500  0.54594700  1
  F  F16  1  0.05167200  0.81944500  0.45405300  1
  F  F17  1  0.05167200  0.18055500  0.04594700  1
  F  F18  1  0.44832800  0.31944500  0.04594700  1
  F  F19  1  0.44832800  0.68055500  0.45405300  1
  F  F20  1  0.25000000  0.75000000  0.08239400  1
  F  F21  1  0.25000000  0.25000000  0.41760600  1
  F  F22  1  0.75000000  0.25000000  0.91760600  1
  F  F23  1  0.75000000  0.75000000  0.58239400  1
  F  F24  1  0.93333000  0.79374900  0.25482700  1
  F  F25  1  0.93333000  0.20625100  0.24517300  1
  F  F26  1  0.56667000  0.29374900  0.24517300  1
  F  F27  1  0.56667000  0.70625100  0.25482700  1
  F  F28  1  0.06667000  0.20625100  0.74517300  1
  F  F29  1  0.06667000  0.79374900  0.75482700  1
  F  F30  1  0.43333000  0.70625100  0.75482700  1
  F  F31  1  0.43333000  0.29374900  0.74517300  1
  F  F32  1  0.64781000  0.01083400  0.10543200  1
  F  F33  1  0.64781000  0.98916600  0.39456800  1
  F  F34  1  0.85219000  0.51083400  0.39456800  1
  F  F35  1  0.85219000  0.48916600  0.10543200  1
  F  F36  1  0.35219000  0.98916600  0.89456800  1
  F  F37  1  0.35219000  0.01083400  0.60543200  1
  F  F38  1  0.14781000  0.48916600  0.60543200  1
  F  F39  1  0.14781000  0.51083400  0.89456800  1
