# generated using pymatgen
data_Na5InO4
_symmetry_space_group_name_H-M   'P 1'
_cell_length_a   5.53437000
_cell_length_b   7.46468500
_cell_length_c   7.70607900
_cell_angle_alpha   90.00000000
_cell_angle_beta   90.00000000
_cell_angle_gamma   90.00000000
_symmetry_Int_Tables_number   1
_chemical_formula_structural   Na5InO4
_chemical_formula_sum   'Na10 In2 O8'
_cell_volume   318.35606882
_cell_formula_units_Z   2
loop_
 _symmetry_equiv_pos_site_id
 _symmetry_equiv_pos_as_xyz
  1  'x, y, z'
loop_
 _atom_site_type_symbol
 _atom_site_label
 _atom_site_symmetry_multiplicity
 _atom_site_fract_x
 _atom_site_fract_y
 _atom_site_fract_z
 _atom_site_occupancy
  Na  Na0  1  0.25533600  0.73956800  0.69419600  1
  Na  Na1  1  0.74466400  0.23956800  0.80580400  1
  Na  Na2  1  0.80356900  0.00000000  0.50000000  1
  Na  Na3  1  0.19643100  0.50000000  0.00000000  1
  Na  Na4  1  0.25533600  0.26043200  0.69419600  1
  Na  Na5  1  0.25533600  0.73956800  0.30580400  1
  Na  Na6  1  0.74466400  0.76043200  0.80580400  1
  Na  Na7  1  0.74466400  0.23956800  0.19419600  1
  Na  Na8  1  0.74466400  0.76043200  0.19419600  1
  Na  Na9  1  0.25533600  0.26043200  0.30580400  1
  In  In10  1  0.22161600  0.00000000  0.00000000  1
  In  In11  1  0.77838400  0.50000000  0.50000000  1
  O  O12  1  0.01811100  0.00000000  0.23266800  1
  O  O13  1  0.01811100  0.00000000  0.76733200  1
  O  O14  1  0.42217700  0.76168000  0.00000000  1
  O  O15  1  0.42217700  0.23832000  0.00000000  1
  O  O16  1  0.57782300  0.26168000  0.50000000  1
  O  O17  1  0.57782300  0.73832000  0.50000000  1
  O  O18  1  0.98188900  0.50000000  0.26733200  1
  O  O19  1  0.98188900  0.50000000  0.73266800  1
