# generated using pymatgen
data_ZnTe
_symmetry_space_group_name_H-M   'P 1'
_cell_length_a   4.36548893
_cell_length_b   4.36548893
_cell_length_c   7.17923200
_cell_angle_alpha   90.00000000
_cell_angle_beta   90.00000000
_cell_angle_gamma   119.99998373
_symmetry_Int_Tables_number   1
_chemical_formula_structural   ZnTe
_chemical_formula_sum   'Zn2 Te2'
_cell_volume   118.48802830
_cell_formula_units_Z   2
loop_
 _symmetry_equiv_pos_site_id
 _symmetry_equiv_pos_as_xyz
  1  'x, y, z'
loop_
 _atom_site_type_symbol
 _atom_site_label
 _atom_site_symmetry_multiplicity
 _atom_site_fract_x
 _atom_site_fract_y
 _atom_site_fract_z
 _atom_site_occupancy
  Zn  Zn0  1  0.33333300  0.66666700  0.00048200  1
  Zn  Zn1  1  0.66666700  0.33333300  0.50048200  1
  Te  Te2  1  0.33333300  0.66666700  0.37451800  1
  Te  Te3  1  0.66666700  0.33333300  0.87451800  1
