# generated using pymatgen
data_BaCdS2
_symmetry_space_group_name_H-M   'P 1'
_cell_length_a   4.22594200
_cell_length_b   7.46260800
_cell_length_c   14.26382700
_cell_angle_alpha   90.00000000
_cell_angle_beta   90.00000000
_cell_angle_gamma   90.00000000
_symmetry_Int_Tables_number   1
_chemical_formula_structural   BaCdS2
_chemical_formula_sum   'Ba4 Cd4 S8'
_cell_volume   449.83187308
_cell_formula_units_Z   4
loop_
 _symmetry_equiv_pos_site_id
 _symmetry_equiv_pos_as_xyz
  1  'x, y, z'
loop_
 _atom_site_type_symbol
 _atom_site_label
 _atom_site_symmetry_multiplicity
 _atom_site_fract_x
 _atom_site_fract_y
 _atom_site_fract_z
 _atom_site_occupancy
  Ba  Ba0  1  0.75000000  0.15470000  0.64037000  1
  Ba  Ba1  1  0.25000000  0.84530000  0.35963000  1
  Ba  Ba2  1  0.75000000  0.65470000  0.85963000  1
  Ba  Ba3  1  0.25000000  0.34530000  0.14037000  1
  Cd  Cd4  1  0.75000000  0.32665800  0.38127900  1
  Cd  Cd5  1  0.75000000  0.82665800  0.11872100  1
  Cd  Cd6  1  0.25000000  0.67334200  0.61872100  1
  Cd  Cd7  1  0.25000000  0.17334200  0.88127900  1
  S  S8  1  0.75000000  0.26389900  0.96993700  1
  S  S9  1  0.25000000  0.73610100  0.03006300  1
  S  S10  1  0.75000000  0.76389900  0.53006300  1
  S  S11  1  0.25000000  0.23610100  0.46993700  1
  S  S12  1  0.25000000  0.42285500  0.73777600  1
  S  S13  1  0.75000000  0.07714500  0.23777600  1
  S  S14  1  0.25000000  0.92285500  0.76222400  1
  S  S15  1  0.75000000  0.57714500  0.26222400  1
