# generated using pymatgen
data_GaAs
_symmetry_space_group_name_H-M   'P 1'
_cell_length_a   4.05346641
_cell_length_b   4.05346641
_cell_length_c   6.67955800
_cell_angle_alpha   90.00000000
_cell_angle_beta   90.00000000
_cell_angle_gamma   120.00000665
_symmetry_Int_Tables_number   1
_chemical_formula_structural   GaAs
_chemical_formula_sum   'Ga2 As2'
_cell_volume   95.04548350
_cell_formula_units_Z   2
loop_
 _symmetry_equiv_pos_site_id
 _symmetry_equiv_pos_as_xyz
  1  'x, y, z'
loop_
 _atom_site_type_symbol
 _atom_site_label
 _atom_site_symmetry_multiplicity
 _atom_site_fract_x
 _atom_site_fract_y
 _atom_site_fract_z
 _atom_site_occupancy
  Ga  Ga0  1  0.33333300  0.66666700  0.99998900  1
  Ga  Ga1  1  0.66666700  0.33333300  0.49998900  1
  As  As2  1  0.33333300  0.66666700  0.37401100  1
  As  As3  1  0.66666700  0.33333300  0.87401100  1
