# generated using pymatgen
data_Ca10V6O25
_symmetry_space_group_name_H-M   'P 1'
_cell_length_a   10.05999009
_cell_length_b   10.05999009
_cell_length_c   6.95979500
_cell_angle_alpha   90.00000000
_cell_angle_beta   90.00000000
_cell_angle_gamma   120.00000056
_symmetry_Int_Tables_number   1
_chemical_formula_structural   Ca10V6O25
_chemical_formula_sum   'Ca10 V6 O25'
_cell_volume   609.98925131
_cell_formula_units_Z   1
loop_
 _symmetry_equiv_pos_site_id
 _symmetry_equiv_pos_as_xyz
  1  'x, y, z'
loop_
 _atom_site_type_symbol
 _atom_site_label
 _atom_site_symmetry_multiplicity
 _atom_site_fract_x
 _atom_site_fract_y
 _atom_site_fract_z
 _atom_site_occupancy
  Ca  Ca0  1  0.45763300  0.10681300  0.24814100  1
  Ca  Ca1  1  0.94140700  0.61738400  0.75089000  1
  Ca  Ca2  1  0.89318700  0.35082000  0.24814100  1
  Ca  Ca3  1  0.38261600  0.32402200  0.75089000  1
  Ca  Ca4  1  0.64918000  0.54236700  0.24814100  1
  Ca  Ca5  1  0.67597800  0.05859300  0.75089000  1
  Ca  Ca6  1  0.00000000  0.00000000  0.00193000  1
  Ca  Ca7  1  0.33333300  0.66666700  0.00498700  1
  Ca  Ca8  1  0.00000000  0.00000000  0.48815300  1
  Ca  Ca9  1  0.33333300  0.66666700  0.50438800  1
  V  V10  1  0.69482900  0.71847600  0.74966400  1
  V  V11  1  0.63589300  0.92290600  0.25170100  1
  V  V12  1  0.28152400  0.97635300  0.74966400  1
  V  V13  1  0.07709400  0.71298700  0.25170100  1
  V  V14  1  0.02364700  0.30517100  0.74966400  1
  V  V15  1  0.28701300  0.36410700  0.25170100  1
  O  O16  1  0.40604000  0.42562100  0.05112600  1
  O  O17  1  0.90563700  0.23941800  0.94855000  1
  O  O18  1  0.57437900  0.98041900  0.05112600  1
  O  O19  1  0.76058200  0.66621900  0.94855000  1
  O  O20  1  0.01958100  0.59396000  0.05112600  1
  O  O21  1  0.33378100  0.09436300  0.94855000  1
  O  O22  1  0.19288100  0.47063500  0.25825500  1
  O  O23  1  0.11899800  0.19676800  0.73589700  1
  O  O24  1  0.52936500  0.72224600  0.25825500  1
  O  O25  1  0.80323200  0.92223000  0.73589700  1
  O  O26  1  0.27775400  0.80711900  0.25825500  1
  O  O27  1  0.07777000  0.88100200  0.73589700  1
  O  O28  1  0.57971800  0.99014700  0.44703600  1
  O  O29  1  0.74724800  0.63949000  0.56469300  1
  O  O30  1  0.00985300  0.58957100  0.44703600  1
  O  O31  1  0.36051000  0.10775800  0.56469300  1
  O  O32  1  0.41042900  0.42028200  0.44703600  1
  O  O33  1  0.89224200  0.25275200  0.56469300  1
  O  O34  1  0.83234800  0.99439900  0.24825300  1
  O  O35  1  0.49900900  0.65595400  0.75342400  1
  O  O36  1  0.00560100  0.83794900  0.24825300  1
  O  O37  1  0.34404600  0.84305500  0.75342400  1
  O  O38  1  0.16205100  0.16765200  0.24825300  1
  O  O39  1  0.15694500  0.50099100  0.75342400  1
  O  O40  1  0.66666700  0.33333300  0.22590100  1
