# generated using pymatgen
data_Si2Mo
_symmetry_space_group_name_H-M   'P 1'
_cell_length_a   4.61647421
_cell_length_b   4.61647421
_cell_length_c   6.61749600
_cell_angle_alpha   90.00000000
_cell_angle_beta   90.00000000
_cell_angle_gamma   120.00000298
_symmetry_Int_Tables_number   1
_chemical_formula_structural   Si2Mo
_chemical_formula_sum   'Si6 Mo3'
_cell_volume   122.13640513
_cell_formula_units_Z   3
loop_
 _symmetry_equiv_pos_site_id
 _symmetry_equiv_pos_as_xyz
  1  'x, y, z'
loop_
 _atom_site_type_symbol
 _atom_site_label
 _atom_site_symmetry_multiplicity
 _atom_site_fract_x
 _atom_site_fract_y
 _atom_site_fract_z
 _atom_site_occupancy
  Si  Si0  1  0.16394800  0.83605200  0.83333300  1
  Si  Si1  1  0.32789700  0.16394800  0.16666700  1
  Si  Si2  1  0.83605200  0.67210300  0.50000000  1
  Si  Si3  1  0.83605200  0.16394800  0.83333300  1
  Si  Si4  1  0.67210300  0.83605200  0.16666700  1
  Si  Si5  1  0.16394800  0.32789700  0.50000000  1
  Mo  Mo6  1  0.50000000  0.00000000  0.50000000  1
  Mo  Mo7  1  0.00000000  0.50000000  0.16666700  1
  Mo  Mo8  1  0.50000000  0.50000000  0.83333300  1
