# generated using pymatgen
data_K2NbCuSe4
_symmetry_space_group_name_H-M   'P 1'
_cell_length_a   14.00269946
_cell_length_b   12.52731084
_cell_length_c   7.47172737
_cell_angle_alpha   84.88663112
_cell_angle_beta   63.00864721
_cell_angle_gamma   32.10472167
_symmetry_Int_Tables_number   1
_chemical_formula_structural   K2NbCuSe4
_chemical_formula_sum   'K4 Nb2 Cu2 Se8'
_cell_volume   485.22742179
_cell_formula_units_Z   2
loop_
 _symmetry_equiv_pos_site_id
 _symmetry_equiv_pos_as_xyz
  1  'x, y, z'
loop_
 _atom_site_type_symbol
 _atom_site_label
 _atom_site_symmetry_multiplicity
 _atom_site_fract_x
 _atom_site_fract_y
 _atom_site_fract_z
 _atom_site_occupancy
  K  K0  1  0.82038000  0.82038000  0.17962000  1
  K  K1  1  0.17962000  0.17962000  0.82038000  1
  K  K2  1  0.42962000  0.42962000  0.07038000  1
  K  K3  1  0.07038000  0.07038000  0.42962000  1
  Nb  Nb4  1  0.00000000  0.00000000  0.00000000  1
  Nb  Nb5  1  0.25000000  0.25000000  0.25000000  1
  Cu  Cu6  1  0.75000000  0.75000000  0.75000000  1
  Cu  Cu7  1  0.50000000  0.50000000  0.50000000  1
  Se  Se8  1  0.16398500  0.44987500  0.54080400  1
  Se  Se9  1  0.44987500  0.16398500  0.84533600  1
  Se  Se10  1  0.08601500  0.80012500  0.70919600  1
  Se  Se11  1  0.40466400  0.70919600  0.80012500  1
  Se  Se12  1  0.70919600  0.40466400  0.08601500  1
  Se  Se13  1  0.80012500  0.08601500  0.40466400  1
  Se  Se14  1  0.54080400  0.84533600  0.16398500  1
  Se  Se15  1  0.84533600  0.54080400  0.44987500  1
