# generated using pymatgen
data_TiS2
_symmetry_space_group_name_H-M   'P 1'
_cell_length_a   6.94298815
_cell_length_b   6.94298815
_cell_length_c   6.94298815
_cell_angle_alpha   60.00000000
_cell_angle_beta   60.00000000
_cell_angle_gamma   60.00000000
_symmetry_Int_Tables_number   1
_chemical_formula_structural   TiS2
_chemical_formula_sum   'Ti4 S8'
_cell_volume   236.65968033
_cell_formula_units_Z   4
loop_
 _symmetry_equiv_pos_site_id
 _symmetry_equiv_pos_as_xyz
  1  'x, y, z'
loop_
 _atom_site_type_symbol
 _atom_site_label
 _atom_site_symmetry_multiplicity
 _atom_site_fract_x
 _atom_site_fract_y
 _atom_site_fract_z
 _atom_site_occupancy
  Ti  Ti0  1  0.12500000  0.12500000  0.62500000  1
  Ti  Ti1  1  0.12500000  0.62500000  0.12500000  1
  Ti  Ti2  1  0.62500000  0.12500000  0.12500000  1
  Ti  Ti3  1  0.12500000  0.12500000  0.12500000  1
  S  S4  1  0.37279800  0.37279800  0.37279800  1
  S  S5  1  0.36839300  0.87720200  0.87720200  1
  S  S6  1  0.87720200  0.87720200  0.36839300  1
  S  S7  1  0.87720200  0.36839300  0.87720200  1
  S  S8  1  0.87720200  0.87720200  0.87720200  1
  S  S9  1  0.88160700  0.37279800  0.37279800  1
  S  S10  1  0.37279800  0.88160700  0.37279800  1
  S  S11  1  0.37279800  0.37279800  0.88160700  1
