# generated using pymatgen
data_Er2S3
_symmetry_space_group_name_H-M   'P 1'
_cell_length_a   3.90827500
_cell_length_b   10.94221500
_cell_length_c   11.20508504
_cell_angle_alpha   71.21346834
_cell_angle_beta   90.00000000
_cell_angle_gamma   90.00000000
_symmetry_Int_Tables_number   1
_chemical_formula_structural   Er2S3
_chemical_formula_sum   'Er8 S12'
_cell_volume   453.65881651
_cell_formula_units_Z   4
loop_
 _symmetry_equiv_pos_site_id
 _symmetry_equiv_pos_as_xyz
  1  'x, y, z'
loop_
 _atom_site_type_symbol
 _atom_site_label
 _atom_site_symmetry_multiplicity
 _atom_site_fract_x
 _atom_site_fract_y
 _atom_site_fract_z
 _atom_site_occupancy
  Er  Er0  1  0.25000000  0.66059000  0.91637000  1
  Er  Er1  1  0.75000000  0.33941000  0.08363000  1
  Er  Er2  1  0.25000000  0.54372100  0.30986800  1
  Er  Er3  1  0.75000000  0.45627900  0.69013200  1
  Er  Er4  1  0.25000000  0.18267200  0.49692300  1
  Er  Er5  1  0.75000000  0.81732800  0.50307700  1
  Er  Er6  1  0.25000000  0.93232400  0.16843100  1
  Er  Er7  1  0.75000000  0.06767600  0.83156900  1
  S  S8  1  0.25000000  0.61029300  0.53713200  1
  S  S9  1  0.75000000  0.38970700  0.46286800  1
  S  S10  1  0.25000000  0.30924400  0.24948900  1
  S  S11  1  0.75000000  0.69075600  0.75051100  1
  S  S12  1  0.25000000  0.97722100  0.38704200  1
  S  S13  1  0.75000000  0.02277900  0.61295800  1
  S  S14  1  0.25000000  0.41815500  0.90159500  1
  S  S15  1  0.75000000  0.58184500  0.09840500  1
  S  S16  1  0.75000000  0.75390900  0.27695200  1
  S  S17  1  0.25000000  0.24609100  0.72304800  1
  S  S18  1  0.75000000  0.10186500  0.06359700  1
  S  S19  1  0.25000000  0.89813500  0.93640300  1
