# generated using pymatgen
data_RbPO3
_symmetry_space_group_name_H-M   'P 1'
_cell_length_a   4.57624700
_cell_length_b   6.20803700
_cell_length_c   13.15709900
_cell_angle_alpha   90.00000000
_cell_angle_beta   90.00000000
_cell_angle_gamma   90.00000000
_symmetry_Int_Tables_number   1
_chemical_formula_structural   RbPO3
_chemical_formula_sum   'Rb4 P4 O12'
_cell_volume   373.78674478
_cell_formula_units_Z   4
loop_
 _symmetry_equiv_pos_site_id
 _symmetry_equiv_pos_as_xyz
  1  'x, y, z'
loop_
 _atom_site_type_symbol
 _atom_site_label
 _atom_site_symmetry_multiplicity
 _atom_site_fract_x
 _atom_site_fract_y
 _atom_site_fract_z
 _atom_site_occupancy
  Rb  Rb0  1  0.22820300  0.75000000  0.59234600  1
  Rb  Rb1  1  0.72820300  0.75000000  0.90765400  1
  Rb  Rb2  1  0.77179700  0.25000000  0.40765400  1
  Rb  Rb3  1  0.27179700  0.25000000  0.09234600  1
  P  P4  1  0.68127700  0.25000000  0.67585700  1
  P  P5  1  0.18127700  0.25000000  0.82414300  1
  P  P6  1  0.31872300  0.75000000  0.32414300  1
  P  P7  1  0.81872300  0.75000000  0.17585700  1
  O  O8  1  0.34071000  0.25000000  0.71348600  1
  O  O9  1  0.84071000  0.25000000  0.78651400  1
  O  O10  1  0.65929000  0.75000000  0.28651400  1
  O  O11  1  0.15929000  0.75000000  0.21348600  1
  O  O12  1  0.26497800  0.54146600  0.37880900  1
  O  O13  1  0.76497800  0.95853400  0.12119100  1
  O  O14  1  0.73502200  0.04146600  0.62119100  1
  O  O15  1  0.23502200  0.45853400  0.87880900  1
  O  O16  1  0.76497800  0.54146600  0.12119100  1
  O  O17  1  0.26497800  0.95853400  0.37880900  1
  O  O18  1  0.23502200  0.04146600  0.87880900  1
  O  O19  1  0.73502200  0.45853400  0.62119100  1
