# generated using pymatgen
data_In2(SO4)3
_symmetry_space_group_name_H-M   'P 1'
_cell_length_a   8.96319800
_cell_length_b   8.67276800
_cell_length_c   14.88710806
_cell_angle_alpha   55.20363491
_cell_angle_beta   90.00000000
_cell_angle_gamma   90.00000000
_symmetry_Int_Tables_number   1
_chemical_formula_structural   In2(SO4)3
_chemical_formula_sum   'In8 S12 O48'
_cell_volume   950.32529020
_cell_formula_units_Z   4
loop_
 _symmetry_equiv_pos_site_id
 _symmetry_equiv_pos_as_xyz
  1  'x, y, z'
loop_
 _atom_site_type_symbol
 _atom_site_label
 _atom_site_symmetry_multiplicity
 _atom_site_fract_x
 _atom_site_fract_y
 _atom_site_fract_z
 _atom_site_occupancy
  In  In0  1  0.46308500  0.63418400  0.11439800  1
  In  In1  1  0.96308500  0.36581600  0.38560200  1
  In  In2  1  0.53691500  0.36581600  0.88560200  1
  In  In3  1  0.03691500  0.63418400  0.61439800  1
  In  In4  1  0.03263800  0.86485400  0.88612800  1
  In  In5  1  0.53263800  0.13514600  0.61387200  1
  In  In6  1  0.96736200  0.13514600  0.11387200  1
  In  In7  1  0.46736200  0.86485400  0.38612800  1
  S  S8  1  0.75265600  0.54314200  0.99693100  1
  S  S9  1  0.25265600  0.45685800  0.50306900  1
  S  S10  1  0.24734400  0.45685800  0.00306900  1
  S  S11  1  0.74734400  0.54314200  0.49693100  1
  S  S12  1  0.88361700  0.96173800  0.64637500  1
  S  S13  1  0.38361700  0.03826200  0.85362500  1
  S  S14  1  0.11638300  0.03826200  0.35362500  1
  S  S15  1  0.61638300  0.96173800  0.14637500  1
  S  S16  1  0.11912500  0.74180700  0.15443600  1
  S  S17  1  0.61912500  0.25819300  0.34556400  1
  S  S18  1  0.88087500  0.25819300  0.84556400  1
  S  S19  1  0.38087500  0.74180700  0.65443600  1
  O  O20  1  0.92697000  0.15721600  0.55869100  1
  O  O21  1  0.42697000  0.84278400  0.94130900  1
  O  O22  1  0.07303000  0.84278400  0.44130900  1
  O  O23  1  0.57303000  0.15721600  0.05869100  1
  O  O24  1  0.81842200  0.73081600  0.95342700  1
  O  O25  1  0.31842200  0.26918400  0.54657300  1
  O  O26  1  0.18157800  0.26918400  0.04657300  1
  O  O27  1  0.68157800  0.73081600  0.45342700  1
  O  O28  1  0.08231300  0.87286000  0.18514200  1
  O  O29  1  0.58231300  0.12714000  0.31485800  1
  O  O30  1  0.91768700  0.12714000  0.81485800  1
  O  O31  1  0.41768700  0.87286000  0.68514200  1
  O  O32  1  0.99169900  0.88369300  0.73764400  1
  O  O33  1  0.49169900  0.11630700  0.76235600  1
  O  O34  1  0.00830100  0.11630700  0.26235600  1
  O  O35  1  0.50830100  0.88369300  0.23764400  1
  O  O36  1  0.02143500  0.57309900  0.21502400  1
  O  O37  1  0.69894300  0.53840000  0.90402300  1
  O  O38  1  0.30105700  0.46160000  0.09597700  1
  O  O39  1  0.80105700  0.53840000  0.40402300  1
  O  O40  1  0.76858900  0.96190300  0.18606300  1
  O  O41  1  0.26858900  0.03809700  0.31393700  1
  O  O42  1  0.23141100  0.03809700  0.81393700  1
  O  O43  1  0.73141100  0.96190300  0.68606300  1
  O  O44  1  0.63282600  0.39708000  0.56171400  1
  O  O45  1  0.13282600  0.60292000  0.93828600  1
  O  O46  1  0.36717400  0.60292000  0.43828600  1
  O  O47  1  0.86717400  0.39708000  0.06171400  1
  O  O48  1  0.61489900  0.84066400  0.10484200  1
  O  O49  1  0.11489900  0.15933600  0.39515800  1
  O  O50  1  0.38510100  0.15933600  0.89515800  1
  O  O51  1  0.88510100  0.84066400  0.60484200  1
  O  O52  1  0.22158100  0.68862800  0.68418200  1
  O  O53  1  0.72158100  0.31137200  0.81581800  1
  O  O54  1  0.77841900  0.31137200  0.31581800  1
  O  O55  1  0.27841900  0.68862800  0.18418200  1
  O  O56  1  0.87160100  0.50873300  0.57192300  1
  O  O57  1  0.37160100  0.49126700  0.92807700  1
  O  O58  1  0.12839900  0.49126700  0.42807700  1
  O  O59  1  0.62839900  0.50873300  0.07192300  1
  O  O60  1  0.40224800  0.83600200  0.53553400  1
  O  O61  1  0.90224800  0.16399800  0.96446600  1
  O  O62  1  0.59775200  0.16399800  0.46446600  1
  O  O63  1  0.09775200  0.83600200  0.03553400  1
  O  O64  1  0.47856500  0.57309900  0.71502400  1
  O  O65  1  0.97856500  0.42690100  0.78497600  1
  O  O66  1  0.52143500  0.42690100  0.28497600  1
  O  O67  1  0.19894300  0.46160000  0.59597700  1
