# generated using pymatgen
data_HgSeO3
_symmetry_space_group_name_H-M   'P 1'
_cell_length_a   6.15761800
_cell_length_b   6.32342500
_cell_length_c   8.69206600
_cell_angle_alpha   90.00000000
_cell_angle_beta   90.00000000
_cell_angle_gamma   90.00000000
_symmetry_Int_Tables_number   1
_chemical_formula_structural   HgSeO3
_chemical_formula_sum   'Hg4 Se4 O12'
_cell_volume   338.44502171
_cell_formula_units_Z   4
loop_
 _symmetry_equiv_pos_site_id
 _symmetry_equiv_pos_as_xyz
  1  'x, y, z'
loop_
 _atom_site_type_symbol
 _atom_site_label
 _atom_site_symmetry_multiplicity
 _atom_site_fract_x
 _atom_site_fract_y
 _atom_site_fract_z
 _atom_site_occupancy
  Hg  Hg0  1  0.00000000  0.00000000  0.50000000  1
  Hg  Hg1  1  0.50000000  0.50000000  0.50000000  1
  Hg  Hg2  1  0.50000000  0.50000000  0.00000000  1
  Hg  Hg3  1  0.00000000  0.00000000  0.00000000  1
  Se  Se4  1  0.50386100  0.92184300  0.75000000  1
  Se  Se5  1  0.00386100  0.57815700  0.25000000  1
  Se  Se6  1  0.99613900  0.42184300  0.75000000  1
  Se  Se7  1  0.49613900  0.07815700  0.25000000  1
  O  O8  1  0.61492500  0.21285200  0.40814300  1
  O  O9  1  0.11492500  0.28714800  0.59185700  1
  O  O10  1  0.88507500  0.71285200  0.09185700  1
  O  O11  1  0.38507500  0.78714800  0.90814300  1
  O  O12  1  0.38507500  0.78714800  0.59185700  1
  O  O13  1  0.88507500  0.71285200  0.40814300  1
  O  O14  1  0.11492500  0.28714800  0.90814300  1
  O  O15  1  0.61492500  0.21285200  0.09185700  1
  O  O16  1  0.23502200  0.15592100  0.25000000  1
  O  O17  1  0.73502200  0.34407900  0.75000000  1
  O  O18  1  0.26497800  0.65592100  0.25000000  1
  O  O19  1  0.76497800  0.84407900  0.75000000  1
