# generated using pymatgen
data_Zr6FeTe2
_symmetry_space_group_name_H-M   'P 1'
_cell_length_a   7.84791633
_cell_length_b   7.84791633
_cell_length_c   3.60393500
_cell_angle_alpha   90.00000000
_cell_angle_beta   90.00000000
_cell_angle_gamma   120.00000275
_symmetry_Int_Tables_number   1
_chemical_formula_structural   Zr6FeTe2
_chemical_formula_sum   'Zr6 Fe1 Te2'
_cell_volume   192.22784497
_cell_formula_units_Z   1
loop_
 _symmetry_equiv_pos_site_id
 _symmetry_equiv_pos_as_xyz
  1  'x, y, z'
loop_
 _atom_site_type_symbol
 _atom_site_label
 _atom_site_symmetry_multiplicity
 _atom_site_fract_x
 _atom_site_fract_y
 _atom_site_fract_z
 _atom_site_occupancy
  Zr  Zr0  1  0.76008300  0.76008300  0.50000000  1
  Zr  Zr1  1  0.00000000  0.59751300  0.00000000  1
  Zr  Zr2  1  0.23991700  0.00000000  0.50000000  1
  Zr  Zr3  1  0.00000000  0.23991700  0.50000000  1
  Zr  Zr4  1  0.59751300  0.00000000  0.00000000  1
  Zr  Zr5  1  0.40248700  0.40248700  0.00000000  1
  Fe  Fe6  1  0.00000000  0.00000000  0.00000000  1
  Te  Te7  1  0.66666700  0.33333300  0.50000000  1
  Te  Te8  1  0.33333300  0.66666700  0.50000000  1
