# generated using pymatgen
data_DyCuTe2
_symmetry_space_group_name_H-M   'P 1'
_cell_length_a   4.33953400
_cell_length_b   6.90685800
_cell_length_c   7.48200526
_cell_angle_alpha   89.39416400
_cell_angle_beta   90.00000000
_cell_angle_gamma   90.00000000
_symmetry_Int_Tables_number   1
_chemical_formula_structural   DyCuTe2
_chemical_formula_sum   'Dy2 Cu2 Te4'
_cell_volume   224.24220396
_cell_formula_units_Z   2
loop_
 _symmetry_equiv_pos_site_id
 _symmetry_equiv_pos_as_xyz
  1  'x, y, z'
loop_
 _atom_site_type_symbol
 _atom_site_label
 _atom_site_symmetry_multiplicity
 _atom_site_fract_x
 _atom_site_fract_y
 _atom_site_fract_z
 _atom_site_occupancy
  Dy  Dy0  1  0.00000000  0.00000000  0.00000000  1
  Dy  Dy1  1  0.50000000  0.00000000  0.50000000  1
  Cu  Cu2  1  0.50000000  0.35099000  0.16240500  1
  Cu  Cu3  1  0.50000000  0.64901000  0.83759500  1
  Te  Te4  1  0.50000000  0.73903500  0.17480800  1
  Te  Te5  1  0.00000000  0.73408200  0.66145600  1
  Te  Te6  1  0.00000000  0.26591800  0.33854400  1
  Te  Te7  1  0.50000000  0.26096500  0.82519200  1
