# generated using pymatgen
data_KAlSiO4
_symmetry_space_group_name_H-M   'P 1'
_cell_length_a   5.22974163
_cell_length_b   5.22974163
_cell_length_c   8.85771400
_cell_angle_alpha   90.00000000
_cell_angle_beta   90.00000000
_cell_angle_gamma   119.99999532
_symmetry_Int_Tables_number   1
_chemical_formula_structural   KAlSiO4
_chemical_formula_sum   'K2 Al2 Si2 O8'
_cell_volume   209.80352119
_cell_formula_units_Z   2
loop_
 _symmetry_equiv_pos_site_id
 _symmetry_equiv_pos_as_xyz
  1  'x, y, z'
loop_
 _atom_site_type_symbol
 _atom_site_label
 _atom_site_symmetry_multiplicity
 _atom_site_fract_x
 _atom_site_fract_y
 _atom_site_fract_z
 _atom_site_occupancy
  K  K0  1  0.00000000  0.00000000  0.75358900  1
  K  K1  1  0.00000000  0.00000000  0.25358900  1
  Al  Al2  1  0.33333300  0.66666700  0.05952500  1
  Al  Al3  1  0.66666700  0.33333300  0.55952500  1
  Si  Si4  1  0.66666700  0.33333300  0.94160900  1
  Si  Si5  1  0.33333300  0.66666700  0.44160900  1
  O  O6  1  0.66666700  0.33333300  0.75722300  1
  O  O7  1  0.33333300  0.66666700  0.25722300  1
  O  O8  1  0.38206200  0.39653700  0.49968500  1
  O  O9  1  0.60346300  0.98552500  0.49968500  1
  O  O10  1  0.01447500  0.61793800  0.49968500  1
  O  O11  1  0.39653700  0.38206200  0.99968500  1
  O  O12  1  0.61793800  0.01447500  0.99968500  1
  O  O13  1  0.98552500  0.60346300  0.99968500  1
