# generated using pymatgen
data_Th(CuP)2
_symmetry_space_group_name_H-M   'P 1'
_cell_length_a   4.01772842
_cell_length_b   4.01772842
_cell_length_c   6.48605200
_cell_angle_alpha   90.00000000
_cell_angle_beta   90.00000000
_cell_angle_gamma   120.00000694
_symmetry_Int_Tables_number   1
_chemical_formula_structural   Th(CuP)2
_chemical_formula_sum   'Th1 Cu2 P2'
_cell_volume   90.67178844
_cell_formula_units_Z   1
loop_
 _symmetry_equiv_pos_site_id
 _symmetry_equiv_pos_as_xyz
  1  'x, y, z'
loop_
 _atom_site_type_symbol
 _atom_site_label
 _atom_site_symmetry_multiplicity
 _atom_site_fract_x
 _atom_site_fract_y
 _atom_site_fract_z
 _atom_site_occupancy
  Th  Th0  1  0.00000000  0.00000000  0.00000000  1
  Cu  Cu1  1  0.66666700  0.33333300  0.36230000  1
  Cu  Cu2  1  0.33333300  0.66666700  0.63770000  1
  P  P3  1  0.66666700  0.33333300  0.73246100  1
  P  P4  1  0.33333300  0.66666700  0.26753900  1
