# generated using pymatgen
data_K4Nb2S11
_symmetry_space_group_name_H-M   'P 1'
_cell_length_a   7.57475300
_cell_length_b   13.53308300
_cell_length_c   18.42313200
_cell_angle_alpha   90.00000000
_cell_angle_beta   90.00000000
_cell_angle_gamma   90.00000000
_symmetry_Int_Tables_number   1
_chemical_formula_structural   K4Nb2S11
_chemical_formula_sum   'K16 Nb8 S44'
_cell_volume   1888.55085918
_cell_formula_units_Z   4
loop_
 _symmetry_equiv_pos_site_id
 _symmetry_equiv_pos_as_xyz
  1  'x, y, z'
loop_
 _atom_site_type_symbol
 _atom_site_label
 _atom_site_symmetry_multiplicity
 _atom_site_fract_x
 _atom_site_fract_y
 _atom_site_fract_z
 _atom_site_occupancy
  K  K0  1  0.66862000  0.77477700  0.37300500  1
  K  K1  1  0.33138000  0.22522300  0.87300500  1
  K  K2  1  0.33138000  0.27477700  0.37300500  1
  K  K3  1  0.66862000  0.72522300  0.87300500  1
  K  K4  1  0.18626900  0.59131500  0.47256100  1
  K  K5  1  0.81373100  0.40868500  0.97256100  1
  K  K6  1  0.81373100  0.09131500  0.47256100  1
  K  K7  1  0.18626900  0.90868500  0.97256100  1
  K  K8  1  0.78290900  0.46129900  0.26777900  1
  K  K9  1  0.21709100  0.53870100  0.76777900  1
  K  K10  1  0.21709100  0.96129900  0.26777900  1
  K  K11  1  0.78290900  0.03870100  0.76777900  1
  K  K12  1  0.20703500  0.28433800  0.11963900  1
  K  K13  1  0.79296500  0.71566200  0.61963900  1
  K  K14  1  0.79296500  0.78433800  0.11963900  1
  K  K15  1  0.20703500  0.21566200  0.61963900  1
  Nb  Nb16  1  0.25950400  0.55537900  0.02673400  1
  Nb  Nb17  1  0.74049600  0.44462100  0.52673400  1
  Nb  Nb18  1  0.74049600  0.05537900  0.02673400  1
  Nb  Nb19  1  0.25950400  0.94462100  0.52673400  1
  Nb  Nb20  1  0.19733800  0.61732000  0.21026400  1
  Nb  Nb21  1  0.80266200  0.38268000  0.71026400  1
  Nb  Nb22  1  0.80266200  0.11732000  0.21026400  1
  Nb  Nb23  1  0.19733800  0.88268000  0.71026400  1
  S  S24  1  0.25398500  0.41149800  0.96478500  1
  S  S25  1  0.74601500  0.58850200  0.46478500  1
  S  S26  1  0.74601500  0.91149800  0.96478500  1
  S  S27  1  0.25398500  0.08850200  0.46478500  1
  S  S28  1  0.25762600  0.67309900  0.91963300  1
  S  S29  1  0.74237400  0.32690100  0.41963300  1
  S  S30  1  0.74237400  0.17309900  0.91963300  1
  S  S31  1  0.25762600  0.82690100  0.41963300  1
  S  S32  1  0.01802400  0.65399400  0.97279500  1
  S  S33  1  0.98197600  0.34600600  0.47279500  1
  S  S34  1  0.98197600  0.15399400  0.97279500  1
  S  S35  1  0.01802400  0.84600600  0.47279500  1
  S  S36  1  0.46565200  0.51736300  0.12831500  1
  S  S37  1  0.53434800  0.48263700  0.62831500  1
  S  S38  1  0.53434800  0.01736300  0.12831500  1
  S  S39  1  0.46565200  0.98263700  0.62831500  1
  S  S40  1  0.39287100  0.56625500  0.31553800  1
  S  S41  1  0.57692300  0.59402100  0.04187000  1
  S  S42  1  0.42307700  0.09402100  0.04187000  1
  S  S43  1  0.57692300  0.90597900  0.54187000  1
  S  S44  1  0.24463900  0.45482700  0.26654000  1
  S  S45  1  0.75536100  0.54517300  0.76654000  1
  S  S46  1  0.75536100  0.95482700  0.26654000  1
  S  S47  1  0.24463900  0.04517300  0.76654000  1
  S  S48  1  0.02843100  0.98564100  0.61989800  1
  S  S49  1  0.97156900  0.01435900  0.11989800  1
  S  S50  1  0.97156900  0.48564100  0.61989800  1
  S  S51  1  0.02843100  0.51435900  0.11989800  1
  S  S52  1  0.22389000  0.76436500  0.60605900  1
  S  S53  1  0.77611000  0.23563500  0.10605900  1
  S  S54  1  0.77611000  0.26436500  0.60605900  1
  S  S55  1  0.22389000  0.73563500  0.10605900  1
  S  S56  1  0.39746000  0.74025200  0.69186700  1
  S  S57  1  0.60254000  0.25974800  0.19186700  1
  S  S58  1  0.60254000  0.24025200  0.69186700  1
  S  S59  1  0.39746000  0.75974800  0.19186700  1
  S  S60  1  0.96627500  0.81720000  0.77091800  1
  S  S61  1  0.03372500  0.18280000  0.27091800  1
  S  S62  1  0.03372500  0.31720000  0.77091800  1
  S  S63  1  0.96627500  0.68280000  0.27091800  1
  S  S64  1  0.39287100  0.93374500  0.81553800  1
  S  S65  1  0.60712900  0.06625500  0.31553800  1
  S  S66  1  0.60712900  0.43374500  0.81553800  1
  S  S67  1  0.42307700  0.40597900  0.54187000  1
