# generated using pymatgen
data_MnCoSi
_symmetry_space_group_name_H-M   'P 1'
_cell_length_a   3.80666127
_cell_length_b   3.80666127
_cell_length_c   3.80666127
_cell_angle_alpha   60.00000000
_cell_angle_beta   60.00000000
_cell_angle_gamma   60.00000000
_symmetry_Int_Tables_number   1
_chemical_formula_structural   MnCoSi
_chemical_formula_sum   'Mn1 Co1 Si1'
_cell_volume   39.00476842
_cell_formula_units_Z   1
loop_
 _symmetry_equiv_pos_site_id
 _symmetry_equiv_pos_as_xyz
  1  'x, y, z'
loop_
 _atom_site_type_symbol
 _atom_site_label
 _atom_site_symmetry_multiplicity
 _atom_site_fract_x
 _atom_site_fract_y
 _atom_site_fract_z
 _atom_site_occupancy
  Mn  Mn0  1  0.00000000  0.00000000  0.00000000  1
  Co  Co1  1  0.75000000  0.75000000  0.75000000  1
  Si  Si2  1  0.50000000  0.50000000  0.50000000  1
