# generated using pymatgen
data_ZnRh3
_symmetry_space_group_name_H-M   'P 1'
_cell_length_a   4.70024498
_cell_length_b   4.70024498
_cell_length_c   4.70024498
_cell_angle_alpha   131.93070729
_cell_angle_beta   131.93070729
_cell_angle_gamma   70.33848923
_symmetry_Int_Tables_number   1
_chemical_formula_structural   ZnRh3
_chemical_formula_sum   'Zn1 Rh3'
_cell_volume   56.32357725
_cell_formula_units_Z   1
loop_
 _symmetry_equiv_pos_site_id
 _symmetry_equiv_pos_as_xyz
  1  'x, y, z'
loop_
 _atom_site_type_symbol
 _atom_site_label
 _atom_site_symmetry_multiplicity
 _atom_site_fract_x
 _atom_site_fract_y
 _atom_site_fract_z
 _atom_site_occupancy
  Zn  Zn0  1  0.00000000  0.00000000  0.00000000  1
  Rh  Rh1  1  0.75000000  0.25000000  0.50000000  1
  Rh  Rh2  1  0.25000000  0.75000000  0.50000000  1
  Rh  Rh3  1  0.50000000  0.50000000  0.00000000  1
