# generated using pymatgen
data_Rb3Yb
_symmetry_space_group_name_H-M   'P 1'
_cell_length_a   9.52755417
_cell_length_b   9.52755417
_cell_length_c   7.73631900
_cell_angle_alpha   90.00000000
_cell_angle_beta   90.00000000
_cell_angle_gamma   120.00000120
_symmetry_Int_Tables_number   1
_chemical_formula_structural   Rb3Yb
_chemical_formula_sum   'Rb6 Yb2'
_cell_volume   608.17399938
_cell_formula_units_Z   2
loop_
 _symmetry_equiv_pos_site_id
 _symmetry_equiv_pos_as_xyz
  1  'x, y, z'
loop_
 _atom_site_type_symbol
 _atom_site_label
 _atom_site_symmetry_multiplicity
 _atom_site_fract_x
 _atom_site_fract_y
 _atom_site_fract_z
 _atom_site_occupancy
  Rb  Rb0  1  0.17083200  0.34166400  0.25000000  1
  Rb  Rb1  1  0.65833600  0.82916800  0.25000000  1
  Rb  Rb2  1  0.17083200  0.82916800  0.25000000  1
  Rb  Rb3  1  0.82916800  0.65833600  0.75000000  1
  Rb  Rb4  1  0.34166400  0.17083200  0.75000000  1
  Rb  Rb5  1  0.82916800  0.17083200  0.75000000  1
  Yb  Yb6  1  0.33333300  0.66666700  0.75000000  1
  Yb  Yb7  1  0.66666700  0.33333300  0.25000000  1
