# generated using pymatgen
data_Yb2Co2O5
_symmetry_space_group_name_H-M   'P 1'
_cell_length_a   3.72898600
_cell_length_b   3.72898600
_cell_length_c   7.29407700
_cell_angle_alpha   90.00000000
_cell_angle_beta   90.00000000
_cell_angle_gamma   90.00000000
_symmetry_Int_Tables_number   1
_chemical_formula_structural   Yb2Co2O5
_chemical_formula_sum   'Yb2 Co2 O5'
_cell_volume   101.42659579
_cell_formula_units_Z   1
loop_
 _symmetry_equiv_pos_site_id
 _symmetry_equiv_pos_as_xyz
  1  'x, y, z'
loop_
 _atom_site_type_symbol
 _atom_site_label
 _atom_site_symmetry_multiplicity
 _atom_site_fract_x
 _atom_site_fract_y
 _atom_site_fract_z
 _atom_site_occupancy
  Yb  Yb0  1  0.50000000  0.50000000  0.00000000  1
  Yb  Yb1  1  0.50000000  0.50000000  0.50000000  1
  Co  Co2  1  0.00000000  0.00000000  0.24116800  1
  Co  Co3  1  0.00000000  0.00000000  0.75883200  1
  O  O4  1  0.00000000  0.50000000  0.20754900  1
  O  O5  1  0.00000000  0.50000000  0.79245100  1
  O  O6  1  0.50000000  0.00000000  0.20754900  1
  O  O7  1  0.50000000  0.00000000  0.79245100  1
  O  O8  1  0.00000000  0.00000000  0.50000000  1
