# generated using pymatgen
data_SmCoSi3
_symmetry_space_group_name_H-M   'P 1'
_cell_length_a   5.59106541
_cell_length_b   5.59106541
_cell_length_c   5.59106541
_cell_angle_alpha   137.05886082
_cell_angle_beta   137.05886082
_cell_angle_gamma   62.34749880
_symmetry_Int_Tables_number   1
_chemical_formula_structural   SmCoSi3
_chemical_formula_sum   'Sm1 Co1 Si3'
_cell_volume   80.13691635
_cell_formula_units_Z   1
loop_
 _symmetry_equiv_pos_site_id
 _symmetry_equiv_pos_as_xyz
  1  'x, y, z'
loop_
 _atom_site_type_symbol
 _atom_site_label
 _atom_site_symmetry_multiplicity
 _atom_site_fract_x
 _atom_site_fract_y
 _atom_site_fract_z
 _atom_site_occupancy
  Sm  Sm0  1  0.00465300  0.00465300  0.00000000  1
  Co  Co1  1  0.66127300  0.66127300  0.00000000  1
  Si  Si2  1  0.76089800  0.26089800  0.50000000  1
  Si  Si3  1  0.26089800  0.76089800  0.50000000  1
  Si  Si4  1  0.42727800  0.42727800  0.00000000  1
