# generated using pymatgen
data_La3Dy
_symmetry_space_group_name_H-M   'P 1'
_cell_length_a   6.39043996
_cell_length_b   6.39043996
_cell_length_c   6.39043996
_cell_angle_alpha   131.91112740
_cell_angle_beta   131.91112740
_cell_angle_gamma   70.36942776
_symmetry_Int_Tables_number   1
_chemical_formula_structural   La3Dy
_chemical_formula_sum   'La3 Dy1'
_cell_volume   141.63516813
_cell_formula_units_Z   1
loop_
 _symmetry_equiv_pos_site_id
 _symmetry_equiv_pos_as_xyz
  1  'x, y, z'
loop_
 _atom_site_type_symbol
 _atom_site_label
 _atom_site_symmetry_multiplicity
 _atom_site_fract_x
 _atom_site_fract_y
 _atom_site_fract_z
 _atom_site_occupancy
  La  La0  1  0.75000000  0.25000000  0.50000000  1
  La  La1  1  0.25000000  0.75000000  0.50000000  1
  La  La2  1  0.50000000  0.50000000  0.00000000  1
  Dy  Dy3  1  0.00000000  0.00000000  0.00000000  1
