# generated using pymatgen
data_Na
_symmetry_space_group_name_H-M   'P 1'
_cell_length_a   9.26383832
_cell_length_b   9.26383832
_cell_length_c   9.26383825
_cell_angle_alpha   23.39596372
_cell_angle_beta   23.39596372
_cell_angle_gamma   23.39596127
_symmetry_Int_Tables_number   1
_chemical_formula_structural   Na
_chemical_formula_sum   Na3
_cell_volume   110.06682023
_cell_formula_units_Z   3
loop_
 _symmetry_equiv_pos_site_id
 _symmetry_equiv_pos_as_xyz
  1  'x, y, z'
loop_
 _atom_site_type_symbol
 _atom_site_label
 _atom_site_symmetry_multiplicity
 _atom_site_fract_x
 _atom_site_fract_y
 _atom_site_fract_z
 _atom_site_occupancy
  Na  Na0  1  0.00000000  0.00000000  0.00000000  1
  Na  Na1  1  0.77779700  0.77779700  0.77779700  1
  Na  Na2  1  0.22220300  0.22220300  0.22220300  1
