# generated using pymatgen
data_PaBi3
_symmetry_space_group_name_H-M   'P 1'
_cell_length_a   6.67340453
_cell_length_b   6.67340453
_cell_length_c   6.08595900
_cell_angle_alpha   90.00000000
_cell_angle_beta   90.00000000
_cell_angle_gamma   120.00000521
_symmetry_Int_Tables_number   1
_chemical_formula_structural   PaBi3
_chemical_formula_sum   'Pa2 Bi6'
_cell_volume   234.72239841
_cell_formula_units_Z   2
loop_
 _symmetry_equiv_pos_site_id
 _symmetry_equiv_pos_as_xyz
  1  'x, y, z'
loop_
 _atom_site_type_symbol
 _atom_site_label
 _atom_site_symmetry_multiplicity
 _atom_site_fract_x
 _atom_site_fract_y
 _atom_site_fract_z
 _atom_site_occupancy
  Pa  Pa0  1  0.33333300  0.66666700  0.75000000  1
  Pa  Pa1  1  0.66666700  0.33333300  0.25000000  1
  Bi  Bi2  1  0.17188700  0.34377300  0.25000000  1
  Bi  Bi3  1  0.65622700  0.82811300  0.25000000  1
  Bi  Bi4  1  0.17188700  0.82811300  0.25000000  1
  Bi  Bi5  1  0.82811300  0.65622700  0.75000000  1
  Bi  Bi6  1  0.34377300  0.17188700  0.75000000  1
  Bi  Bi7  1  0.82811300  0.17188700  0.75000000  1
