# generated using pymatgen
data_Ni3I
_symmetry_space_group_name_H-M   'P 1'
_cell_length_a   4.68106754
_cell_length_b   4.68106754
_cell_length_c   4.68106754
_cell_angle_alpha   132.55266735
_cell_angle_beta   132.55266735
_cell_angle_gamma   69.35753705
_symmetry_Int_Tables_number   1
_chemical_formula_structural   Ni3I
_chemical_formula_sum   'Ni3 I1'
_cell_volume   54.61477306
_cell_formula_units_Z   1
loop_
 _symmetry_equiv_pos_site_id
 _symmetry_equiv_pos_as_xyz
  1  'x, y, z'
loop_
 _atom_site_type_symbol
 _atom_site_label
 _atom_site_symmetry_multiplicity
 _atom_site_fract_x
 _atom_site_fract_y
 _atom_site_fract_z
 _atom_site_occupancy
  Ni  Ni0  1  0.75000000  0.25000000  0.50000000  1
  Ni  Ni1  1  0.25000000  0.75000000  0.50000000  1
  Ni  Ni2  1  0.50000000  0.50000000  0.00000000  1
  I  I3  1  0.00000000  0.00000000  0.00000000  1
