# generated using pymatgen
data_NdCuTeO
_symmetry_space_group_name_H-M   'P 1'
_cell_length_a   4.12293200
_cell_length_b   4.12293200
_cell_length_c   9.40757200
_cell_angle_alpha   90.00000000
_cell_angle_beta   90.00000000
_cell_angle_gamma   90.00000000
_symmetry_Int_Tables_number   1
_chemical_formula_structural   NdCuTeO
_chemical_formula_sum   'Nd2 Cu2 Te2 O2'
_cell_volume   159.91525496
_cell_formula_units_Z   2
loop_
 _symmetry_equiv_pos_site_id
 _symmetry_equiv_pos_as_xyz
  1  'x, y, z'
loop_
 _atom_site_type_symbol
 _atom_site_label
 _atom_site_symmetry_multiplicity
 _atom_site_fract_x
 _atom_site_fract_y
 _atom_site_fract_z
 _atom_site_occupancy
  Nd  Nd0  1  0.00000000  0.50000000  0.37673200  1
  Nd  Nd1  1  0.50000000  0.00000000  0.62326800  1
  Cu  Cu2  1  0.00000000  0.00000000  0.00000000  1
  Cu  Cu3  1  0.50000000  0.50000000  0.00000000  1
  Te  Te4  1  0.50000000  0.00000000  0.17954600  1
  Te  Te5  1  0.00000000  0.50000000  0.82045400  1
  O  O6  1  0.00000000  0.00000000  0.50000000  1
  O  O7  1  0.50000000  0.50000000  0.50000000  1
