# generated using pymatgen
data_NdDy3
_symmetry_space_group_name_H-M   'P 1'
_cell_length_a   7.28386601
_cell_length_b   7.28386601
_cell_length_c   5.73622300
_cell_angle_alpha   90.00000000
_cell_angle_beta   90.00000000
_cell_angle_gamma   120.00000005
_symmetry_Int_Tables_number   1
_chemical_formula_structural   NdDy3
_chemical_formula_sum   'Nd2 Dy6'
_cell_volume   263.56064017
_cell_formula_units_Z   2
loop_
 _symmetry_equiv_pos_site_id
 _symmetry_equiv_pos_as_xyz
  1  'x, y, z'
loop_
 _atom_site_type_symbol
 _atom_site_label
 _atom_site_symmetry_multiplicity
 _atom_site_fract_x
 _atom_site_fract_y
 _atom_site_fract_z
 _atom_site_occupancy
  Nd  Nd0  1  0.66666700  0.33333300  0.25000000  1
  Nd  Nd1  1  0.33333300  0.66666700  0.75000000  1
  Dy  Dy2  1  0.83469100  0.16530900  0.75000000  1
  Dy  Dy3  1  0.33061700  0.16530900  0.75000000  1
  Dy  Dy4  1  0.83469100  0.66938300  0.75000000  1
  Dy  Dy5  1  0.16530900  0.83469100  0.25000000  1
  Dy  Dy6  1  0.66938300  0.83469100  0.25000000  1
  Dy  Dy7  1  0.16530900  0.33061700  0.25000000  1
