# generated using pymatgen
data_Re3Tc
_symmetry_space_group_name_H-M   'P 1'
_cell_length_a   5.55013980
_cell_length_b   5.55013980
_cell_length_c   4.48437700
_cell_angle_alpha   90.00000000
_cell_angle_beta   90.00000000
_cell_angle_gamma   119.99999758
_symmetry_Int_Tables_number   1
_chemical_formula_structural   Re3Tc
_chemical_formula_sum   'Re6 Tc2'
_cell_volume   119.63013788
_cell_formula_units_Z   2
loop_
 _symmetry_equiv_pos_site_id
 _symmetry_equiv_pos_as_xyz
  1  'x, y, z'
loop_
 _atom_site_type_symbol
 _atom_site_label
 _atom_site_symmetry_multiplicity
 _atom_site_fract_x
 _atom_site_fract_y
 _atom_site_fract_z
 _atom_site_occupancy
  Re  Re0  1  0.16606200  0.33212400  0.25000000  1
  Re  Re1  1  0.66787600  0.83393800  0.25000000  1
  Re  Re2  1  0.16606200  0.83393800  0.25000000  1
  Re  Re3  1  0.83393800  0.66787600  0.75000000  1
  Re  Re4  1  0.33212400  0.16606200  0.75000000  1
  Re  Re5  1  0.83393800  0.16606200  0.75000000  1
  Tc  Tc6  1  0.33333300  0.66666700  0.75000000  1
  Tc  Tc7  1  0.66666700  0.33333300  0.25000000  1
