# generated using pymatgen
data_K2H4Pt
_symmetry_space_group_name_H-M   'P 1'
_cell_length_a   5.63688400
_cell_length_b   5.63688400
_cell_length_c   8.20371800
_cell_angle_alpha   90.00000000
_cell_angle_beta   90.00000000
_cell_angle_gamma   90.00000000
_symmetry_Int_Tables_number   1
_chemical_formula_structural   K2H4Pt
_chemical_formula_sum   'K4 H8 Pt2'
_cell_volume   260.66871953
_cell_formula_units_Z   2
loop_
 _symmetry_equiv_pos_site_id
 _symmetry_equiv_pos_as_xyz
  1  'x, y, z'
loop_
 _atom_site_type_symbol
 _atom_site_label
 _atom_site_symmetry_multiplicity
 _atom_site_fract_x
 _atom_site_fract_y
 _atom_site_fract_z
 _atom_site_occupancy
  K  K0  1  0.50000000  0.00000000  0.25000000  1
  K  K1  1  0.00000000  0.50000000  0.25000000  1
  K  K2  1  0.50000000  0.00000000  0.75000000  1
  K  K3  1  0.00000000  0.50000000  0.75000000  1
  H  H4  1  0.20885100  0.20885100  0.00000000  1
  H  H5  1  0.79114900  0.79114900  0.00000000  1
  H  H6  1  0.00000000  0.00000000  0.20308400  1
  H  H7  1  0.50000000  0.50000000  0.29691600  1
  H  H8  1  0.70885100  0.29114900  0.50000000  1
  H  H9  1  0.29114900  0.70885100  0.50000000  1
  H  H10  1  0.50000000  0.50000000  0.70308400  1
  H  H11  1  0.00000000  0.00000000  0.79691600  1
  Pt  Pt12  1  0.00000000  0.00000000  0.00000000  1
  Pt  Pt13  1  0.50000000  0.50000000  0.50000000  1
