# generated using pymatgen
data_KBeH3
_symmetry_space_group_name_H-M   'P 1'
_cell_length_a   5.49743800
_cell_length_b   6.86125800
_cell_length_c   9.04422010
_cell_angle_alpha   74.10853320
_cell_angle_beta   90.00000000
_cell_angle_gamma   90.00000000
_symmetry_Int_Tables_number   1
_chemical_formula_structural   KBeH3
_chemical_formula_sum   'K4 Be4 H12'
_cell_volume   328.10428560
_cell_formula_units_Z   4
loop_
 _symmetry_equiv_pos_site_id
 _symmetry_equiv_pos_as_xyz
  1  'x, y, z'
loop_
 _atom_site_type_symbol
 _atom_site_label
 _atom_site_symmetry_multiplicity
 _atom_site_fract_x
 _atom_site_fract_y
 _atom_site_fract_z
 _atom_site_occupancy
  K  K0  1  0.24859200  0.76907600  0.69821500  1
  K  K1  1  0.74859200  0.23092400  0.80178500  1
  K  K2  1  0.25140800  0.76907600  0.19821500  1
  K  K3  1  0.75140800  0.23092400  0.30178500  1
  Be  Be4  1  0.25594100  0.24589000  0.50297100  1
  Be  Be5  1  0.75594100  0.75411000  0.99702900  1
  Be  Be6  1  0.24405900  0.24589000  0.00297100  1
  Be  Be7  1  0.74405900  0.75411000  0.49702900  1
  H  H8  1  0.02716200  0.18277800  0.56647200  1
  H  H9  1  0.46707900  0.16114400  0.58052600  1
  H  H10  1  0.72594100  0.62433300  0.64614200  1
  H  H11  1  0.22594100  0.37566700  0.85385800  1
  H  H12  1  0.96707900  0.83885600  0.91947400  1
  H  H13  1  0.52716200  0.81722200  0.93352800  1
  H  H14  1  0.47283800  0.18277800  0.06647200  1
  H  H15  1  0.03292100  0.16114400  0.08052600  1
  H  H16  1  0.77405900  0.62433300  0.14614200  1
  H  H17  1  0.27405900  0.37566700  0.35385800  1
  H  H18  1  0.53292100  0.83885600  0.41947400  1
  H  H19  1  0.97283800  0.81722200  0.43352800  1
