# generated using pymatgen
data_Rb3Na
_symmetry_space_group_name_H-M   'P 1'
_cell_length_a   8.32995339
_cell_length_b   8.32995339
_cell_length_c   8.32995339
_cell_angle_alpha   133.62748888
_cell_angle_beta   133.62748888
_cell_angle_gamma   67.67041769
_symmetry_Int_Tables_number   1
_chemical_formula_structural   Rb3Na
_chemical_formula_sum   'Rb3 Na1'
_cell_volume   297.70072969
_cell_formula_units_Z   1
loop_
 _symmetry_equiv_pos_site_id
 _symmetry_equiv_pos_as_xyz
  1  'x, y, z'
loop_
 _atom_site_type_symbol
 _atom_site_label
 _atom_site_symmetry_multiplicity
 _atom_site_fract_x
 _atom_site_fract_y
 _atom_site_fract_z
 _atom_site_occupancy
  Rb  Rb0  1  0.75000000  0.25000000  0.50000000  1
  Rb  Rb1  1  0.25000000  0.75000000  0.50000000  1
  Rb  Rb2  1  0.50000000  0.50000000  0.00000000  1
  Na  Na3  1  0.00000000  0.00000000  0.00000000  1
