# generated using pymatgen
data_Rb3In
_symmetry_space_group_name_H-M   'P 1'
_cell_length_a   7.38397641
_cell_length_b   7.38397641
_cell_length_c   7.38397641
_cell_angle_alpha   129.33154122
_cell_angle_beta   129.33154122
_cell_angle_gamma   74.47769170
_symmetry_Int_Tables_number   1
_chemical_formula_structural   Rb3In
_chemical_formula_sum   'Rb3 In1'
_cell_volume   234.74137366
_cell_formula_units_Z   1
loop_
 _symmetry_equiv_pos_site_id
 _symmetry_equiv_pos_as_xyz
  1  'x, y, z'
loop_
 _atom_site_type_symbol
 _atom_site_label
 _atom_site_symmetry_multiplicity
 _atom_site_fract_x
 _atom_site_fract_y
 _atom_site_fract_z
 _atom_site_occupancy
  Rb  Rb0  1  0.75000000  0.25000000  0.50000000  1
  Rb  Rb1  1  0.25000000  0.75000000  0.50000000  1
  Rb  Rb2  1  0.50000000  0.50000000  0.00000000  1
  In  In3  1  0.00000000  0.00000000  0.00000000  1
