# generated using pymatgen
data_Rb3Ga
_symmetry_space_group_name_H-M   'P 1'
_cell_length_a   7.17024763
_cell_length_b   7.17024763
_cell_length_c   7.17024763
_cell_angle_alpha   128.15824604
_cell_angle_beta   128.15824604
_cell_angle_gamma   76.36881575
_symmetry_Int_Tables_number   1
_chemical_formula_structural   Rb3Ga
_chemical_formula_sum   'Rb3 Ga1'
_cell_volume   221.47218899
_cell_formula_units_Z   1
loop_
 _symmetry_equiv_pos_site_id
 _symmetry_equiv_pos_as_xyz
  1  'x, y, z'
loop_
 _atom_site_type_symbol
 _atom_site_label
 _atom_site_symmetry_multiplicity
 _atom_site_fract_x
 _atom_site_fract_y
 _atom_site_fract_z
 _atom_site_occupancy
  Rb  Rb0  1  0.75000000  0.25000000  0.50000000  1
  Rb  Rb1  1  0.25000000  0.75000000  0.50000000  1
  Rb  Rb2  1  0.50000000  0.50000000  0.00000000  1
  Ga  Ga3  1  0.00000000  0.00000000  0.00000000  1
