# generated using pymatgen
data_NiS
_symmetry_space_group_name_H-M   'P 1'
_cell_length_a   5.61943143
_cell_length_b   5.61943143
_cell_length_c   5.61943124
_cell_angle_alpha   116.64275788
_cell_angle_beta   116.64275788
_cell_angle_gamma   116.64275145
_symmetry_Int_Tables_number   1
_chemical_formula_structural   NiS
_chemical_formula_sum   'Ni3 S3'
_cell_volume   82.54732908
_cell_formula_units_Z   3
loop_
 _symmetry_equiv_pos_site_id
 _symmetry_equiv_pos_as_xyz
  1  'x, y, z'
loop_
 _atom_site_type_symbol
 _atom_site_label
 _atom_site_symmetry_multiplicity
 _atom_site_fract_x
 _atom_site_fract_y
 _atom_site_fract_z
 _atom_site_occupancy
  Ni  Ni0  1  0.39648300  0.66034600  0.39648300  1
  Ni  Ni1  1  0.39648300  0.39648300  0.66034600  1
  Ni  Ni2  1  0.66034600  0.39648300  0.39648300  1
  S  S3  1  0.11970400  0.78268100  0.11970400  1
  S  S4  1  0.11970400  0.11970400  0.78268100  1
  S  S5  1  0.78268100  0.11970400  0.11970400  1
