# generated using pymatgen
data_Zn3(AsO4)2
_symmetry_space_group_name_H-M   'P 1'
_cell_length_a   9.01481000
_cell_length_b   6.72441500
_cell_length_c   11.14281054
_cell_angle_alpha   86.32609431
_cell_angle_beta   90.00000000
_cell_angle_gamma   90.00000000
_symmetry_Int_Tables_number   1
_chemical_formula_structural   Zn3(AsO4)2
_chemical_formula_sum   'Zn12 As8 O32'
_cell_volume   674.08148316
_cell_formula_units_Z   4
loop_
 _symmetry_equiv_pos_site_id
 _symmetry_equiv_pos_as_xyz
  1  'x, y, z'
loop_
 _atom_site_type_symbol
 _atom_site_label
 _atom_site_symmetry_multiplicity
 _atom_site_fract_x
 _atom_site_fract_y
 _atom_site_fract_z
 _atom_site_occupancy
  Zn  Zn0  1  0.85599300  0.75286100  0.63456300  1
  Zn  Zn1  1  0.35599300  0.24713900  0.86543700  1
  Zn  Zn2  1  0.14400700  0.24713900  0.36543700  1
  Zn  Zn3  1  0.64400700  0.75286100  0.13456300  1
  Zn  Zn4  1  0.97885900  0.38152800  0.88387100  1
  Zn  Zn5  1  0.47885900  0.61847200  0.61612900  1
  Zn  Zn6  1  0.02114100  0.61847200  0.11612900  1
  Zn  Zn7  1  0.52114100  0.38152800  0.38387100  1
  Zn  Zn8  1  0.71664300  0.08049400  0.92158100  1
  Zn  Zn9  1  0.21664300  0.91950600  0.57841900  1
  Zn  Zn10  1  0.28335700  0.91950600  0.07841900  1
  Zn  Zn11  1  0.78335700  0.08049400  0.42158100  1
  As  As12  1  0.86871900  0.58262900  0.36404000  1
  As  As13  1  0.36871900  0.41737100  0.13596000  1
  As  As14  1  0.13128100  0.41737100  0.63596000  1
  As  As15  1  0.63128100  0.58262900  0.86404000  1
  As  As16  1  0.93873900  0.10632600  0.14714200  1
  As  As17  1  0.43873900  0.89367400  0.35285800  1
  As  As18  1  0.06126100  0.89367400  0.85285800  1
  As  As19  1  0.56126100  0.10632600  0.64714200  1
  O  O20  1  0.54784500  0.12659300  0.80171300  1
  O  O21  1  0.04784500  0.87340700  0.69828700  1
  O  O22  1  0.45215500  0.87340700  0.19828700  1
  O  O23  1  0.95215500  0.12659300  0.30171300  1
  O  O24  1  0.44851600  0.52296100  0.85656000  1
  O  O25  1  0.94851600  0.47703900  0.64344000  1
  O  O26  1  0.55148400  0.47703900  0.14344000  1
  O  O27  1  0.05148400  0.52296100  0.35656000  1
  O  O28  1  0.49733200  0.32611100  0.57659000  1
  O  O29  1  0.99733200  0.67388900  0.92341000  1
  O  O30  1  0.50266800  0.67388900  0.42341000  1
  O  O31  1  0.00266800  0.32611100  0.07659000  1
  O  O32  1  0.66859500  0.66404200  0.71519300  1
  O  O33  1  0.16859500  0.33595800  0.78480700  1
  O  O34  1  0.33140500  0.33595800  0.28480700  1
  O  O35  1  0.83140500  0.66404200  0.21519300  1
  O  O36  1  0.43442400  0.92158900  0.61935400  1
  O  O37  1  0.93442400  0.07841100  0.88064600  1
  O  O38  1  0.56557600  0.07841100  0.38064600  1
  O  O39  1  0.06557600  0.92158900  0.11935400  1
  O  O40  1  0.74859400  0.39149200  0.40708100  1
  O  O41  1  0.24859400  0.60850800  0.09291900  1
  O  O42  1  0.25140600  0.60850800  0.59291900  1
  O  O43  1  0.75140600  0.39149200  0.90708100  1
  O  O44  1  0.76000000  0.05051700  0.10657700  1
  O  O45  1  0.26000000  0.94948300  0.39342300  1
  O  O46  1  0.24000000  0.94948300  0.89342300  1
  O  O47  1  0.74000000  0.05051700  0.60657700  1
  O  O48  1  0.84177400  0.78213400  0.45347000  1
  O  O49  1  0.34177400  0.21786600  0.04653000  1
  O  O50  1  0.15822600  0.21786600  0.54653000  1
  O  O51  1  0.65822600  0.78213400  0.95347000  1
