# generated using pymatgen
data_RhI
_symmetry_space_group_name_H-M   'P 1'
_cell_length_a   4.09250449
_cell_length_b   4.09250449
_cell_length_c   7.44699800
_cell_angle_alpha   90.00000000
_cell_angle_beta   90.00000000
_cell_angle_gamma   120.00000799
_symmetry_Int_Tables_number   1
_chemical_formula_structural   RhI
_chemical_formula_sum   'Rh2 I2'
_cell_volume   108.01651567
_cell_formula_units_Z   2
loop_
 _symmetry_equiv_pos_site_id
 _symmetry_equiv_pos_as_xyz
  1  'x, y, z'
loop_
 _atom_site_type_symbol
 _atom_site_label
 _atom_site_symmetry_multiplicity
 _atom_site_fract_x
 _atom_site_fract_y
 _atom_site_fract_z
 _atom_site_occupancy
  Rh  Rh0  1  0.66666700  0.33333300  0.86445400  1
  Rh  Rh1  1  0.33333300  0.66666700  0.36445400  1
  I  I2  1  0.66666700  0.33333300  0.51054600  1
  I  I3  1  0.33333300  0.66666700  0.01054600  1
