# generated using pymatgen
data_Pr3Ag
_symmetry_space_group_name_H-M   'P 1'
_cell_length_a   6.25423138
_cell_length_b   6.25423138
_cell_length_c   6.25423138
_cell_angle_alpha   134.45890664
_cell_angle_beta   134.45890664
_cell_angle_gamma   66.37210900
_symmetry_Int_Tables_number   1
_chemical_formula_structural   Pr3Ag
_chemical_formula_sum   'Pr3 Ag1'
_cell_volume   122.67880035
_cell_formula_units_Z   1
loop_
 _symmetry_equiv_pos_site_id
 _symmetry_equiv_pos_as_xyz
  1  'x, y, z'
loop_
 _atom_site_type_symbol
 _atom_site_label
 _atom_site_symmetry_multiplicity
 _atom_site_fract_x
 _atom_site_fract_y
 _atom_site_fract_z
 _atom_site_occupancy
  Pr  Pr0  1  0.75000000  0.25000000  0.50000000  1
  Pr  Pr1  1  0.25000000  0.75000000  0.50000000  1
  Pr  Pr2  1  0.50000000  0.50000000  0.00000000  1
  Ag  Ag3  1  0.00000000  0.00000000  0.00000000  1
