# generated using pymatgen
data_Mo3H
_symmetry_space_group_name_H-M   'P 1'
_cell_length_a   5.05887107
_cell_length_b   5.05887107
_cell_length_c   5.05887107
_cell_angle_alpha   138.87018174
_cell_angle_beta   138.87018174
_cell_angle_gamma   59.57285440
_symmetry_Int_Tables_number   1
_chemical_formula_structural   Mo3H
_chemical_formula_sum   'Mo3 H1'
_cell_volume   55.45746111
_cell_formula_units_Z   1
loop_
 _symmetry_equiv_pos_site_id
 _symmetry_equiv_pos_as_xyz
  1  'x, y, z'
loop_
 _atom_site_type_symbol
 _atom_site_label
 _atom_site_symmetry_multiplicity
 _atom_site_fract_x
 _atom_site_fract_y
 _atom_site_fract_z
 _atom_site_occupancy
  Mo  Mo0  1  0.75000000  0.25000000  0.50000000  1
  Mo  Mo1  1  0.25000000  0.75000000  0.50000000  1
  Mo  Mo2  1  0.50000000  0.50000000  0.00000000  1
  H  H3  1  0.00000000  0.00000000  0.00000000  1
