# generated using pymatgen
data_KNaMo(OF2)2
_symmetry_space_group_name_H-M   'P 1'
_cell_length_a   6.07679100
_cell_length_b   6.07679100
_cell_length_c   8.46392100
_cell_angle_alpha   90.00000000
_cell_angle_beta   90.00000000
_cell_angle_gamma   90.00000000
_symmetry_Int_Tables_number   1
_chemical_formula_structural   KNaMo(OF2)2
_chemical_formula_sum   'K2 Na2 Mo2 O4 F8'
_cell_volume   312.55050203
_cell_formula_units_Z   2
loop_
 _symmetry_equiv_pos_site_id
 _symmetry_equiv_pos_as_xyz
  1  'x, y, z'
loop_
 _atom_site_type_symbol
 _atom_site_label
 _atom_site_symmetry_multiplicity
 _atom_site_fract_x
 _atom_site_fract_y
 _atom_site_fract_z
 _atom_site_occupancy
  K  K0  1  0.00000000  0.00000000  0.50000000  1
  K  K1  1  0.50000000  0.50000000  0.50000000  1
  Na  Na2  1  0.50000000  0.00000000  0.22707100  1
  Na  Na3  1  0.00000000  0.50000000  0.77292900  1
  Mo  Mo4  1  0.00000000  0.50000000  0.25393500  1
  Mo  Mo5  1  0.50000000  0.00000000  0.74606500  1
  O  O6  1  0.00000000  0.50000000  0.04449100  1
  O  O7  1  0.00000000  0.50000000  0.47286400  1
  O  O8  1  0.50000000  0.00000000  0.52713600  1
  O  O9  1  0.50000000  0.00000000  0.95550900  1
  F  F10  1  0.77009800  0.27009800  0.26213100  1
  F  F11  1  0.22990200  0.27009800  0.26213100  1
  F  F12  1  0.77009800  0.72990200  0.26213100  1
  F  F13  1  0.22990200  0.72990200  0.26213100  1
  F  F14  1  0.27009800  0.77009800  0.73786900  1
  F  F15  1  0.72990200  0.77009800  0.73786900  1
  F  F16  1  0.27009800  0.22990200  0.73786900  1
  F  F17  1  0.72990200  0.22990200  0.73786900  1
