# generated using pymatgen
data_Li3In
_symmetry_space_group_name_H-M   'P 1'
_cell_length_a   5.32954365
_cell_length_b   5.32954365
_cell_length_c   5.32954365
_cell_angle_alpha   134.74583933
_cell_angle_beta   134.74583933
_cell_angle_gamma   65.92536530
_symmetry_Int_Tables_number   1
_chemical_formula_structural   Li3In
_chemical_formula_sum   'Li3 In1'
_cell_volume   75.20051309
_cell_formula_units_Z   1
loop_
 _symmetry_equiv_pos_site_id
 _symmetry_equiv_pos_as_xyz
  1  'x, y, z'
loop_
 _atom_site_type_symbol
 _atom_site_label
 _atom_site_symmetry_multiplicity
 _atom_site_fract_x
 _atom_site_fract_y
 _atom_site_fract_z
 _atom_site_occupancy
  Li  Li0  1  0.75000000  0.25000000  0.50000000  1
  Li  Li1  1  0.25000000  0.75000000  0.50000000  1
  Li  Li2  1  0.50000000  0.50000000  0.00000000  1
  In  In3  1  0.00000000  0.00000000  0.00000000  1
