# generated using pymatgen
data_Hf3Tl
_symmetry_space_group_name_H-M   'P 1'
_cell_length_a   5.63599881
_cell_length_b   5.63599881
_cell_length_c   5.63599881
_cell_angle_alpha   134.70156016
_cell_angle_beta   134.70156016
_cell_angle_gamma   65.99426292
_symmetry_Int_Tables_number   1
_chemical_formula_structural   Hf3Tl
_chemical_formula_sum   'Hf3 Tl1'
_cell_volume   89.06329511
_cell_formula_units_Z   1
loop_
 _symmetry_equiv_pos_site_id
 _symmetry_equiv_pos_as_xyz
  1  'x, y, z'
loop_
 _atom_site_type_symbol
 _atom_site_label
 _atom_site_symmetry_multiplicity
 _atom_site_fract_x
 _atom_site_fract_y
 _atom_site_fract_z
 _atom_site_occupancy
  Hf  Hf0  1  0.75000000  0.25000000  0.50000000  1
  Hf  Hf1  1  0.25000000  0.75000000  0.50000000  1
  Hf  Hf2  1  0.50000000  0.50000000  0.00000000  1
  Tl  Tl3  1  0.00000000  0.00000000  0.00000000  1
