# generated using pymatgen
data_Li2Mg
_symmetry_space_group_name_H-M   'P 1'
_cell_length_a   5.90391410
_cell_length_b   5.90391410
_cell_length_c   5.90391403
_cell_angle_alpha   53.54671878
_cell_angle_beta   53.54671878
_cell_angle_gamma   53.54672478
_symmetry_Int_Tables_number   1
_chemical_formula_structural   Li2Mg
_chemical_formula_sum   'Li4 Mg2'
_cell_volume   123.54471179
_cell_formula_units_Z   2
loop_
 _symmetry_equiv_pos_site_id
 _symmetry_equiv_pos_as_xyz
  1  'x, y, z'
loop_
 _atom_site_type_symbol
 _atom_site_label
 _atom_site_symmetry_multiplicity
 _atom_site_fract_x
 _atom_site_fract_y
 _atom_site_fract_z
 _atom_site_occupancy
  Li  Li0  1  0.33333000  0.00000000  0.66667000  1
  Li  Li1  1  0.66667000  0.33333000  0.00000000  1
  Li  Li2  1  0.00000000  0.66667000  0.33333000  1
  Li  Li3  1  0.50000000  0.50000000  0.50000000  1
  Mg  Mg4  1  0.83329300  0.83329300  0.83329300  1
  Mg  Mg5  1  0.16670700  0.16670700  0.16670700  1
