# generated using pymatgen
data_Li3Ag
_symmetry_space_group_name_H-M   'P 1'
_cell_length_a   5.81477536
_cell_length_b   5.81477536
_cell_length_c   4.70364400
_cell_angle_alpha   90.00000000
_cell_angle_beta   90.00000000
_cell_angle_gamma   119.99999277
_symmetry_Int_Tables_number   1
_chemical_formula_structural   Li3Ag
_chemical_formula_sum   'Li6 Ag2'
_cell_volume   137.73077501
_cell_formula_units_Z   2
loop_
 _symmetry_equiv_pos_site_id
 _symmetry_equiv_pos_as_xyz
  1  'x, y, z'
loop_
 _atom_site_type_symbol
 _atom_site_label
 _atom_site_symmetry_multiplicity
 _atom_site_fract_x
 _atom_site_fract_y
 _atom_site_fract_z
 _atom_site_occupancy
  Li  Li0  1  0.17078900  0.34157800  0.25000000  1
  Li  Li1  1  0.65842200  0.82921100  0.25000000  1
  Li  Li2  1  0.17078900  0.82921100  0.25000000  1
  Li  Li3  1  0.82921100  0.65842200  0.75000000  1
  Li  Li4  1  0.34157800  0.17078900  0.75000000  1
  Li  Li5  1  0.82921100  0.17078900  0.75000000  1
  Ag  Ag6  1  0.33333300  0.66666700  0.75000000  1
  Ag  Ag7  1  0.66666700  0.33333300  0.25000000  1
