# generated using pymatgen
data_K2Ca2(SO4)3
_symmetry_space_group_name_H-M   'P 1'
_cell_length_a   10.64135000
_cell_length_b   10.64135000
_cell_length_c   10.64135000
_cell_angle_alpha   90.00000000
_cell_angle_beta   90.00000000
_cell_angle_gamma   90.00000000
_symmetry_Int_Tables_number   1
_chemical_formula_structural   K2Ca2(SO4)3
_chemical_formula_sum   'K8 Ca8 S12 O48'
_cell_volume   1205.00870106
_cell_formula_units_Z   4
loop_
 _symmetry_equiv_pos_site_id
 _symmetry_equiv_pos_as_xyz
  1  'x, y, z'
loop_
 _atom_site_type_symbol
 _atom_site_label
 _atom_site_symmetry_multiplicity
 _atom_site_fract_x
 _atom_site_fract_y
 _atom_site_fract_z
 _atom_site_occupancy
  K  K0  1  0.68552700  0.18552700  0.31447300  1
  K  K1  1  0.31447300  0.68552700  0.18552700  1
  K  K2  1  0.94450700  0.55549300  0.44450700  1
  K  K3  1  0.18552700  0.31447300  0.68552700  1
  K  K4  1  0.05549300  0.05549300  0.05549300  1
  K  K5  1  0.44450700  0.94450700  0.55549300  1
  K  K6  1  0.55549300  0.44450700  0.94450700  1
  K  K7  1  0.81447300  0.81447300  0.81447300  1
  Ca  Ca8  1  0.32930500  0.32930500  0.32930500  1
  Ca  Ca9  1  0.17069500  0.67069500  0.82930500  1
  Ca  Ca10  1  0.82930500  0.17069500  0.67069500  1
  Ca  Ca11  1  0.67069500  0.82930500  0.17069500  1
  Ca  Ca12  1  0.58905100  0.58905100  0.58905100  1
  Ca  Ca13  1  0.08905100  0.91094900  0.41094900  1
  Ca  Ca14  1  0.41094900  0.08905100  0.91094900  1
  Ca  Ca15  1  0.91094900  0.41094900  0.08905100  1
  S  S16  1  0.27139200  0.62553200  0.50876100  1
  S  S17  1  0.77139200  0.87446800  0.49123900  1
  S  S18  1  0.72860800  0.12553200  0.99123900  1
  S  S19  1  0.87446800  0.49123900  0.77139200  1
  S  S20  1  0.99123900  0.72860800  0.12553200  1
  S  S21  1  0.49123900  0.77139200  0.87446800  1
  S  S22  1  0.62553200  0.50876100  0.27139200  1
  S  S23  1  0.50876100  0.27139200  0.62553200  1
  S  S24  1  0.12553200  0.99123900  0.72860800  1
  S  S25  1  0.22860800  0.37446800  0.00876100  1
  S  S26  1  0.00876100  0.22860800  0.37446800  1
  S  S27  1  0.37446800  0.00876100  0.22860800  1
  O  O28  1  0.23212100  0.57851900  0.63479600  1
  O  O29  1  0.73212100  0.92148100  0.36520400  1
  O  O30  1  0.76787900  0.07851900  0.86520400  1
  O  O31  1  0.92148100  0.36520400  0.73212100  1
  O  O32  1  0.86520400  0.76787900  0.07851900  1
  O  O33  1  0.36520400  0.73212100  0.92148100  1
  O  O34  1  0.57851900  0.63479600  0.23212100  1
  O  O35  1  0.63479600  0.23212100  0.57851900  1
  O  O36  1  0.07851900  0.86520400  0.76787900  1
  O  O37  1  0.42148100  0.13479600  0.26787900  1
  O  O38  1  0.13479600  0.26787900  0.42148100  1
  O  O39  1  0.26787900  0.42148100  0.13479600  1
  O  O40  1  0.27397600  0.51994900  0.41754500  1
  O  O41  1  0.77397600  0.98005100  0.58245500  1
  O  O42  1  0.72602400  0.01994900  0.08245500  1
  O  O43  1  0.98005100  0.58245500  0.77397600  1
  O  O44  1  0.08245500  0.72602400  0.01994900  1
  O  O45  1  0.58245500  0.77397600  0.98005100  1
  O  O46  1  0.98310200  0.60127200  0.18385000  1
  O  O47  1  0.51994900  0.41754500  0.27397600  1
  O  O48  1  0.01994900  0.08245500  0.72602400  1
  O  O49  1  0.48005100  0.91754500  0.22602400  1
  O  O50  1  0.91754500  0.22602400  0.48005100  1
  O  O51  1  0.22602400  0.48005100  0.91754500  1
  O  O52  1  0.39872800  0.68385000  0.51689800  1
  O  O53  1  0.89872800  0.81615000  0.48310200  1
  O  O54  1  0.60127200  0.18385000  0.98310200  1
  O  O55  1  0.81615000  0.48310200  0.89872800  1
  O  O56  1  0.32126200  0.28069000  0.96252100  1
  O  O57  1  0.96252100  0.32126200  0.28069000  1
  O  O58  1  0.28069000  0.96252100  0.32126200  1
  O  O59  1  0.21931000  0.03747900  0.82126200  1
  O  O60  1  0.46252100  0.17873800  0.71931000  1
  O  O61  1  0.71931000  0.46252100  0.17873800  1
  O  O62  1  0.53747900  0.67873800  0.78069000  1
  O  O63  1  0.03747900  0.82126200  0.21931000  1
  O  O64  1  0.78069000  0.53747900  0.67873800  1
  O  O65  1  0.82126200  0.21931000  0.03747900  1
  O  O66  1  0.67873800  0.78069000  0.53747900  1
  O  O67  1  0.17873800  0.71931000  0.46252100  1
  O  O68  1  0.10127200  0.31615000  0.01689800  1
  O  O69  1  0.01689800  0.10127200  0.31615000  1
  O  O70  1  0.31615000  0.01689800  0.10127200  1
  O  O71  1  0.18385000  0.98310200  0.60127200  1
  O  O72  1  0.51689800  0.39872800  0.68385000  1
  O  O73  1  0.68385000  0.51689800  0.39872800  1
  O  O74  1  0.48310200  0.89872800  0.81615000  1
  O  O75  1  0.41754500  0.27397600  0.51994900  1
