# generated using pymatgen
data_SnB
_symmetry_space_group_name_H-M   'P 1'
_cell_length_a   3.69565962
_cell_length_b   3.69565962
_cell_length_c   6.36489100
_cell_angle_alpha   90.00000000
_cell_angle_beta   90.00000000
_cell_angle_gamma   119.99999312
_symmetry_Int_Tables_number   1
_chemical_formula_structural   SnB
_chemical_formula_sum   'Sn2 B2'
_cell_volume   75.28449836
_cell_formula_units_Z   2
loop_
 _symmetry_equiv_pos_site_id
 _symmetry_equiv_pos_as_xyz
  1  'x, y, z'
loop_
 _atom_site_type_symbol
 _atom_site_label
 _atom_site_symmetry_multiplicity
 _atom_site_fract_x
 _atom_site_fract_y
 _atom_site_fract_z
 _atom_site_occupancy
  Sn  Sn0  1  0.66666700  0.33333300  0.86570400  1
  Sn  Sn1  1  0.33333300  0.66666700  0.36570400  1
  B  B2  1  0.66666700  0.33333300  0.50929600  1
  B  B3  1  0.33333300  0.66666700  0.00929600  1
