# generated using pymatgen
data_SmEr3
_symmetry_space_group_name_H-M   'P 1'
_cell_length_a   7.20581762
_cell_length_b   7.20581762
_cell_length_c   5.64242100
_cell_angle_alpha   90.00000000
_cell_angle_beta   90.00000000
_cell_angle_gamma   119.99999648
_symmetry_Int_Tables_number   1
_chemical_formula_structural   SmEr3
_chemical_formula_sum   'Sm2 Er6'
_cell_volume   253.72465207
_cell_formula_units_Z   2
loop_
 _symmetry_equiv_pos_site_id
 _symmetry_equiv_pos_as_xyz
  1  'x, y, z'
loop_
 _atom_site_type_symbol
 _atom_site_label
 _atom_site_symmetry_multiplicity
 _atom_site_fract_x
 _atom_site_fract_y
 _atom_site_fract_z
 _atom_site_occupancy
  Sm  Sm0  1  0.33333300  0.66666700  0.75000000  1
  Sm  Sm1  1  0.66666700  0.33333300  0.25000000  1
  Er  Er2  1  0.16541300  0.33082600  0.25000000  1
  Er  Er3  1  0.66917400  0.83458700  0.25000000  1
  Er  Er4  1  0.16541300  0.83458700  0.25000000  1
  Er  Er5  1  0.83458700  0.66917400  0.75000000  1
  Er  Er6  1  0.33082600  0.16541300  0.75000000  1
  Er  Er7  1  0.83458700  0.16541300  0.75000000  1
