# generated using pymatgen
data_BeCN2
_symmetry_space_group_name_H-M   'P 1'
_cell_length_a   4.39133868
_cell_length_b   4.39133868
_cell_length_c   4.39133868
_cell_angle_alpha   129.25108004
_cell_angle_beta   129.25108004
_cell_angle_gamma   74.60690949
_symmetry_Int_Tables_number   1
_chemical_formula_structural   BeCN2
_chemical_formula_sum   'Be2 C2 N4'
_cell_volume   49.47934216
_cell_formula_units_Z   2
loop_
 _symmetry_equiv_pos_site_id
 _symmetry_equiv_pos_as_xyz
  1  'x, y, z'
loop_
 _atom_site_type_symbol
 _atom_site_label
 _atom_site_symmetry_multiplicity
 _atom_site_fract_x
 _atom_site_fract_y
 _atom_site_fract_z
 _atom_site_occupancy
  Be  Be0  1  0.75000000  0.25000000  0.50000000  1
  Be  Be1  1  0.00000000  0.00000000  0.00000000  1
  C  C2  1  0.25000000  0.75000000  0.50000000  1
  C  C3  1  0.50000000  0.50000000  0.00000000  1
  N  N4  1  0.17038600  0.12500000  0.54538600  1
  N  N5  1  0.87500000  0.42038600  0.04538600  1
  N  N6  1  0.37500000  0.82961400  0.95461400  1
  N  N7  1  0.57961400  0.62500000  0.45461400  1
