# generated using pymatgen
data_Y3SbO7
_symmetry_space_group_name_H-M   'P 1'
_cell_length_a   6.49247177
_cell_length_b   6.49247177
_cell_length_c   7.54845500
_cell_angle_alpha   90.00000000
_cell_angle_beta   90.00000000
_cell_angle_gamma   109.50568090
_symmetry_Int_Tables_number   1
_chemical_formula_structural   Y3SbO7
_chemical_formula_sum   'Y6 Sb2 O14'
_cell_volume   299.92282009
_cell_formula_units_Z   2
loop_
 _symmetry_equiv_pos_site_id
 _symmetry_equiv_pos_as_xyz
  1  'x, y, z'
loop_
 _atom_site_type_symbol
 _atom_site_label
 _atom_site_symmetry_multiplicity
 _atom_site_fract_x
 _atom_site_fract_y
 _atom_site_fract_z
 _atom_site_occupancy
  Y  Y0  1  0.50000000  0.50000000  0.00000000  1
  Y  Y1  1  0.50000000  0.50000000  0.50000000  1
  Y  Y2  1  0.99978600  0.46832200  0.75000000  1
  Y  Y3  1  0.00021400  0.53167800  0.25000000  1
  Y  Y4  1  0.53167800  0.00021400  0.75000000  1
  Y  Y5  1  0.46832200  0.99978600  0.25000000  1
  Sb  Sb6  1  0.00000000  0.00000000  0.00000000  1
  Sb  Sb7  1  0.00000000  0.00000000  0.50000000  1
  O  O8  1  0.63681500  0.36318500  0.75000000  1
  O  O9  1  0.36318500  0.63681500  0.25000000  1
  O  O10  1  0.36958800  0.63041200  0.75000000  1
  O  O11  1  0.63041200  0.36958800  0.25000000  1
  O  O12  1  0.93024200  0.06975800  0.75000000  1
  O  O13  1  0.06975800  0.93024200  0.25000000  1
  O  O14  1  0.07285800  0.32201100  0.02975800  1
  O  O15  1  0.92714200  0.67798900  0.52975800  1
  O  O16  1  0.67798900  0.92714200  0.47024200  1
  O  O17  1  0.32201100  0.07285800  0.97024200  1
  O  O18  1  0.92714200  0.67798900  0.97024200  1
  O  O19  1  0.07285800  0.32201100  0.47024200  1
  O  O20  1  0.32201100  0.07285800  0.52975800  1
  O  O21  1  0.67798900  0.92714200  0.02975800  1
