# generated using pymatgen
data_HfTl3
_symmetry_space_group_name_H-M   'P 1'
_cell_length_a   5.95343059
_cell_length_b   5.95343059
_cell_length_c   5.95343059
_cell_angle_alpha   136.16267464
_cell_angle_beta   136.16267464
_cell_angle_gamma   63.72893774
_symmetry_Int_Tables_number   1
_chemical_formula_structural   HfTl3
_chemical_formula_sum   'Hf1 Tl3'
_cell_volume   99.88845017
_cell_formula_units_Z   1
loop_
 _symmetry_equiv_pos_site_id
 _symmetry_equiv_pos_as_xyz
  1  'x, y, z'
loop_
 _atom_site_type_symbol
 _atom_site_label
 _atom_site_symmetry_multiplicity
 _atom_site_fract_x
 _atom_site_fract_y
 _atom_site_fract_z
 _atom_site_occupancy
  Hf  Hf0  1  0.00000000  0.00000000  0.00000000  1
  Tl  Tl1  1  0.75000000  0.25000000  0.50000000  1
  Tl  Tl2  1  0.25000000  0.75000000  0.50000000  1
  Tl  Tl3  1  0.50000000  0.50000000  0.00000000  1
