# generated using pymatgen
data_Ga3Bi
_symmetry_space_group_name_H-M   'P 1'
_cell_length_a   4.53075500
_cell_length_b   4.53075500
_cell_length_c   4.53075500
_cell_angle_alpha   90.00000000
_cell_angle_beta   90.00000000
_cell_angle_gamma   90.00000000
_symmetry_Int_Tables_number   1
_chemical_formula_structural   Ga3Bi
_chemical_formula_sum   'Ga3 Bi1'
_cell_volume   93.00616459
_cell_formula_units_Z   1
loop_
 _symmetry_equiv_pos_site_id
 _symmetry_equiv_pos_as_xyz
  1  'x, y, z'
loop_
 _atom_site_type_symbol
 _atom_site_label
 _atom_site_symmetry_multiplicity
 _atom_site_fract_x
 _atom_site_fract_y
 _atom_site_fract_z
 _atom_site_occupancy
  Ga  Ga0  1  0.00000000  0.50000000  0.50000000  1
  Ga  Ga1  1  0.50000000  0.00000000  0.50000000  1
  Ga  Ga2  1  0.50000000  0.50000000  0.00000000  1
  Bi  Bi3  1  0.00000000  0.00000000  0.00000000  1
