# generated using pymatgen
data_Au3O
_symmetry_space_group_name_H-M   'P 1'
_cell_length_a   7.45823254
_cell_length_b   7.45823254
_cell_length_c   2.93512800
_cell_angle_alpha   90.00000000
_cell_angle_beta   90.00000000
_cell_angle_gamma   120.00000477
_symmetry_Int_Tables_number   1
_chemical_formula_structural   Au3O
_chemical_formula_sum   'Au6 O2'
_cell_volume   141.39351667
_cell_formula_units_Z   2
loop_
 _symmetry_equiv_pos_site_id
 _symmetry_equiv_pos_as_xyz
  1  'x, y, z'
loop_
 _atom_site_type_symbol
 _atom_site_label
 _atom_site_symmetry_multiplicity
 _atom_site_fract_x
 _atom_site_fract_y
 _atom_site_fract_z
 _atom_site_occupancy
  Au  Au0  1  0.81333300  0.18666700  0.75000000  1
  Au  Au1  1  0.37333300  0.18666700  0.75000000  1
  Au  Au2  1  0.81333300  0.62666700  0.75000000  1
  Au  Au3  1  0.18666700  0.81333300  0.25000000  1
  Au  Au4  1  0.62666700  0.81333300  0.25000000  1
  Au  Au5  1  0.18666700  0.37333300  0.25000000  1
  O  O6  1  0.66666700  0.33333300  0.25000000  1
  O  O7  1  0.33333300  0.66666700  0.75000000  1
