# generated using pymatgen
data_TmP5
_symmetry_space_group_name_H-M   'P 1'
_cell_length_a   9.36171200
_cell_length_b   4.92079800
_cell_length_c   5.31756489
_cell_angle_alpha   77.65560766
_cell_angle_beta   90.00000000
_cell_angle_gamma   90.00000000
_symmetry_Int_Tables_number   1
_chemical_formula_structural   TmP5
_chemical_formula_sum   'Tm2 P10'
_cell_volume   239.30123047
_cell_formula_units_Z   2
loop_
 _symmetry_equiv_pos_site_id
 _symmetry_equiv_pos_as_xyz
  1  'x, y, z'
loop_
 _atom_site_type_symbol
 _atom_site_label
 _atom_site_symmetry_multiplicity
 _atom_site_fract_x
 _atom_site_fract_y
 _atom_site_fract_z
 _atom_site_occupancy
  Tm  Tm0  1  0.25000000  0.99746200  0.34672100  1
  Tm  Tm1  1  0.75000000  0.00253800  0.65327900  1
  P  P2  1  0.25000000  0.72858900  0.89090300  1
  P  P3  1  0.75000000  0.27141100  0.10909700  1
  P  P4  1  0.40660700  0.38334400  0.95677200  1
  P  P5  1  0.90660700  0.61665600  0.04322800  1
  P  P6  1  0.59339300  0.61665600  0.04322800  1
  P  P7  1  0.09339300  0.38334400  0.95677200  1
  P  P8  1  0.47162500  0.28334300  0.59452900  1
  P  P9  1  0.97162500  0.71665700  0.40547100  1
  P  P10  1  0.52837500  0.71665700  0.40547100  1
  P  P11  1  0.02837500  0.28334300  0.59452900  1
