# generated using pymatgen
data_YP5
_symmetry_space_group_name_H-M   'P 1'
_cell_length_a   9.43815400
_cell_length_b   4.95878800
_cell_length_c   5.36517008
_cell_angle_alpha   77.87722960
_cell_angle_beta   90.00000000
_cell_angle_gamma   90.00000000
_symmetry_Int_Tables_number   1
_chemical_formula_structural   YP5
_chemical_formula_sum   'Y2 P10'
_cell_volume   245.50008391
_cell_formula_units_Z   2
loop_
 _symmetry_equiv_pos_site_id
 _symmetry_equiv_pos_as_xyz
  1  'x, y, z'
loop_
 _atom_site_type_symbol
 _atom_site_label
 _atom_site_symmetry_multiplicity
 _atom_site_fract_x
 _atom_site_fract_y
 _atom_site_fract_z
 _atom_site_occupancy
  Y  Y0  1  0.25000000  0.99652500  0.34637200  1
  Y  Y1  1  0.75000000  0.00347500  0.65362800  1
  P  P2  1  0.25000000  0.72331500  0.89222700  1
  P  P3  1  0.75000000  0.27668500  0.10777300  1
  P  P4  1  0.40748300  0.38405900  0.95482100  1
  P  P5  1  0.90748300  0.61594100  0.04517900  1
  P  P6  1  0.59251700  0.61594100  0.04517900  1
  P  P7  1  0.09251700  0.38405900  0.95482100  1
  P  P8  1  0.47162800  0.28607000  0.59494300  1
  P  P9  1  0.97162800  0.71393000  0.40505700  1
  P  P10  1  0.52837200  0.71393000  0.40505700  1
  P  P11  1  0.02837200  0.28607000  0.59494300  1
