# generated using pymatgen
data_Al2O3
_symmetry_space_group_name_H-M   'P 1'
_cell_length_a   4.98827623
_cell_length_b   4.98827623
_cell_length_c   14.53365100
_cell_angle_alpha   90.00000000
_cell_angle_beta   90.00000000
_cell_angle_gamma   120.00000302
_symmetry_Int_Tables_number   1
_chemical_formula_structural   Al2O3
_chemical_formula_sum   'Al6 O9'
_cell_volume   313.18888095
_cell_formula_units_Z   3
loop_
 _symmetry_equiv_pos_site_id
 _symmetry_equiv_pos_as_xyz
  1  'x, y, z'
loop_
 _atom_site_type_symbol
 _atom_site_label
 _atom_site_symmetry_multiplicity
 _atom_site_fract_x
 _atom_site_fract_y
 _atom_site_fract_z
 _atom_site_occupancy
  Al  Al0  1  0.66666700  0.33333300  0.11934100  1
  Al  Al1  1  0.00000000  0.00000000  0.09263000  1
  Al  Al2  1  0.33333300  0.66666700  0.08224000  1
  Al  Al3  1  0.66666700  0.33333300  0.91776000  1
  Al  Al4  1  0.00000000  0.00000000  0.90737000  1
  Al  Al5  1  0.33333300  0.66666700  0.88065900  1
  O  O6  1  0.01328800  0.67490000  0.14395800  1
  O  O7  1  0.32510000  0.33838800  0.14395800  1
  O  O8  1  0.66161200  0.98671200  0.14395800  1
  O  O9  1  0.32492300  0.00000000  0.00000000  1
  O  O10  1  0.00000000  0.32492300  0.00000000  1
  O  O11  1  0.67507700  0.67507700  0.00000000  1
  O  O12  1  0.33838800  0.32510000  0.85604200  1
  O  O13  1  0.67490000  0.01328800  0.85604200  1
  O  O14  1  0.98671200  0.66161200  0.85604200  1
