# generated using pymatgen
data_LaMoN3
_symmetry_space_group_name_H-M   'P 1'
_cell_length_a   3.89039000
_cell_length_b   5.83559000
_cell_length_c   7.98778953
_cell_angle_alpha   71.09462573
_cell_angle_beta   90.00000000
_cell_angle_gamma   90.00000000
_symmetry_Int_Tables_number   1
_chemical_formula_structural   LaMoN3
_chemical_formula_sum   'La2 Mo2 N6'
_cell_volume   171.56191974
_cell_formula_units_Z   2
loop_
 _symmetry_equiv_pos_site_id
 _symmetry_equiv_pos_as_xyz
  1  'x, y, z'
loop_
 _atom_site_type_symbol
 _atom_site_label
 _atom_site_symmetry_multiplicity
 _atom_site_fract_x
 _atom_site_fract_y
 _atom_site_fract_z
 _atom_site_occupancy
  La  La0  1  0.75000000  0.25825000  0.68948000  1
  La  La1  1  0.25000000  0.74175000  0.31052000  1
  Mo  Mo2  1  0.75000000  0.35521000  0.16917000  1
  Mo  Mo3  1  0.25000000  0.64479000  0.83083000  1
  N  N4  1  0.75000000  0.45851000  0.36689000  1
  N  N5  1  0.75000000  0.03127000  0.23702000  1
  N  N6  1  0.25000000  0.54149000  0.63311000  1
  N  N7  1  0.75000000  0.52014000  0.89026000  1
  N  N8  1  0.25000000  0.47986000  0.10974000  1
  N  N9  1  0.25000000  0.96873000  0.76298000  1
