# generated using pymatgen
data_YWN3
_symmetry_space_group_name_H-M   'P 1'
_cell_length_a   3.65097000
_cell_length_b   5.76671000
_cell_length_c   8.01112958
_cell_angle_alpha   71.97012157
_cell_angle_beta   90.00000000
_cell_angle_gamma   90.00000000
_symmetry_Int_Tables_number   1
_chemical_formula_structural   YWN3
_chemical_formula_sum   'Y2 W2 N6'
_cell_volume   160.38465233
_cell_formula_units_Z   2
loop_
 _symmetry_equiv_pos_site_id
 _symmetry_equiv_pos_as_xyz
  1  'x, y, z'
loop_
 _atom_site_type_symbol
 _atom_site_label
 _atom_site_symmetry_multiplicity
 _atom_site_fract_x
 _atom_site_fract_y
 _atom_site_fract_z
 _atom_site_occupancy
  Y  Y0  1  0.25000000  0.29576000  0.40314000  1
  Y  Y1  1  0.75000000  0.70424000  0.59686000  1
  W  W2  1  0.25000000  0.11445000  0.81942000  1
  W  W3  1  0.75000000  0.88555000  0.18058000  1
  N  N4  1  0.75000000  0.06184000  0.33770000  1
  N  N5  1  0.75000000  0.57310000  0.34520000  1
  N  N6  1  0.25000000  0.93816000  0.66230000  1
  N  N7  1  0.25000000  0.42690000  0.65480000  1
  N  N8  1  0.25000000  0.87076000  0.08958000  1
  N  N9  1  0.75000000  0.12924000  0.91042000  1
