# generated using pymatgen
data_SnGe
_symmetry_space_group_name_H-M   'P 1'
_cell_length_a   4.36362020
_cell_length_b   4.36362020
_cell_length_c   12.58619800
_cell_angle_alpha   90.00000000
_cell_angle_beta   90.00000000
_cell_angle_gamma   120.00000299
_symmetry_Int_Tables_number   1
_chemical_formula_structural   SnGe
_chemical_formula_sum   'Sn1 Ge1'
_cell_volume   207.54824464
_cell_formula_units_Z   1
loop_
 _symmetry_equiv_pos_site_id
 _symmetry_equiv_pos_as_xyz
  1  'x, y, z'
loop_
 _atom_site_type_symbol
 _atom_site_label
 _atom_site_symmetry_multiplicity
 _atom_site_fract_x
 _atom_site_fract_y
 _atom_site_fract_z
 _atom_site_occupancy
  Sn  Sn0  1  0.00000000  0.00000000  0.48192100  1
  Ge  Ge1  1  0.33333300  0.66666700  0.54307900  1
