# generated using pymatgen
data_CaCr2O4
_symmetry_space_group_name_H-M   'P 1'
_cell_length_a   7.64651300
_cell_length_b   9.13892900
_cell_length_c   10.68729300
_cell_angle_alpha   90.00000000
_cell_angle_beta   90.00000000
_cell_angle_gamma   90.00000000
_symmetry_Int_Tables_number   1
_chemical_formula_structural   CaCr2O4
_chemical_formula_sum   'Ca8 Cr16 O32'
_cell_volume   746.83807453
_cell_formula_units_Z   8
loop_
 _symmetry_equiv_pos_site_id
 _symmetry_equiv_pos_as_xyz
  1  'x, y, z'
loop_
 _atom_site_type_symbol
 _atom_site_label
 _atom_site_symmetry_multiplicity
 _atom_site_fract_x
 _atom_site_fract_y
 _atom_site_fract_z
 _atom_site_occupancy
  Ca  Ca0  1  0.50171400  0.08140800  0.88936000  1
  Ca  Ca1  1  0.46693700  0.61221500  0.68225400  1
  Ca  Ca2  1  0.96693700  0.11221500  0.81774600  1
  Ca  Ca3  1  0.00171400  0.58140800  0.61064000  1
  Ca  Ca4  1  0.53306300  0.11221500  0.31774600  1
  Ca  Ca5  1  0.49828600  0.58140800  0.11064000  1
  Ca  Ca6  1  0.99828600  0.08140800  0.38936000  1
  Ca  Ca7  1  0.03306300  0.61221500  0.18225400  1
  Cr  Cr8  1  0.75008900  0.77182500  0.88034500  1
  Cr  Cr9  1  0.75185500  0.43264000  0.83277700  1
  Cr  Cr10  1  0.66637600  0.89989200  0.62273400  1
  Cr  Cr11  1  0.24814500  0.93264000  0.16722300  1
  Cr  Cr12  1  0.25008900  0.27182500  0.61965500  1
  Cr  Cr13  1  0.83362400  0.89989200  0.12273400  1
  Cr  Cr14  1  0.74991100  0.77182500  0.38034500  1
  Cr  Cr15  1  0.33362400  0.39989200  0.37726600  1
  Cr  Cr16  1  0.31980200  0.74014700  0.41483300  1
  Cr  Cr17  1  0.81980200  0.24014700  0.08516700  1
  Cr  Cr18  1  0.68019800  0.24014700  0.58516700  1
  Cr  Cr19  1  0.74814500  0.43264000  0.33277700  1
  Cr  Cr20  1  0.25185500  0.93264000  0.66722300  1
  Cr  Cr21  1  0.16637600  0.39989200  0.87726600  1
  Cr  Cr22  1  0.24991100  0.27182500  0.11965500  1
  Cr  Cr23  1  0.18019800  0.74014700  0.91483300  1
  O  O24  1  0.34796800  0.91877800  0.32767100  1
  O  O25  1  0.68439200  0.28452900  0.94280300  1
  O  O26  1  0.94931800  0.72336700  0.98838900  1
  O  O27  1  0.20962600  0.58778000  0.79151500  1
  O  O28  1  0.24731300  0.46392300  0.03944900  1
  O  O29  1  0.97803200  0.36614100  0.75593300  1
  O  O30  1  0.74731300  0.96392300  0.46055100  1
  O  O31  1  0.81560800  0.28452900  0.44280300  1
  O  O32  1  0.79037400  0.08778000  0.20848500  1
  O  O33  1  0.18439200  0.78452900  0.55719700  1
  O  O34  1  0.55068200  0.72336700  0.48838900  1
  O  O35  1  0.15203200  0.91877800  0.82767100  1
  O  O36  1  0.47803200  0.86614100  0.74406700  1
  O  O37  1  0.25268700  0.46392300  0.53944900  1
  O  O38  1  0.11501800  0.09423900  0.60112000  1
  O  O39  1  0.70407200  0.74331500  0.20505800  1
  O  O40  1  0.05068200  0.22336700  0.01161100  1
  O  O41  1  0.70962600  0.08778000  0.70848500  1
  O  O42  1  0.31560800  0.78452900  0.05719700  1
  O  O43  1  0.29037400  0.58778000  0.29151500  1
  O  O44  1  0.20407200  0.24331500  0.29494200  1
  O  O45  1  0.75268700  0.96392300  0.96055100  1
  O  O46  1  0.52196800  0.36614100  0.25593300  1
  O  O47  1  0.88498200  0.59423900  0.39888000  1
  O  O48  1  0.79592800  0.74331500  0.70505800  1
  O  O49  1  0.29592800  0.24331500  0.79494200  1
  O  O50  1  0.44931800  0.22336700  0.51161100  1
  O  O51  1  0.38498200  0.09423900  0.10112000  1
  O  O52  1  0.84796800  0.41877800  0.17232900  1
  O  O53  1  0.02196800  0.86614100  0.24406700  1
  O  O54  1  0.61501800  0.59423900  0.89888000  1
  O  O55  1  0.65203200  0.41877800  0.67232900  1
