# generated using pymatgen
data_AgBiO2
_symmetry_space_group_name_H-M   'P 1'
_cell_length_a   3.60307000
_cell_length_b   6.72094100
_cell_length_c   6.78230976
_cell_angle_alpha   66.35265396
_cell_angle_beta   90.00000000
_cell_angle_gamma   90.00000000
_symmetry_Int_Tables_number   1
_chemical_formula_structural   AgBiO2
_chemical_formula_sum   'Ag2 Bi2 O4'
_cell_volume   150.44953674
_cell_formula_units_Z   2
loop_
 _symmetry_equiv_pos_site_id
 _symmetry_equiv_pos_as_xyz
  1  'x, y, z'
loop_
 _atom_site_type_symbol
 _atom_site_label
 _atom_site_symmetry_multiplicity
 _atom_site_fract_x
 _atom_site_fract_y
 _atom_site_fract_z
 _atom_site_occupancy
  Ag  Ag0  1  0.25000000  0.98056000  0.68200000  1
  Ag  Ag1  1  0.75000000  0.01944000  0.31800000  1
  Bi  Bi2  1  0.75000000  0.45645000  0.75314000  1
  Bi  Bi3  1  0.25000000  0.54355000  0.24686000  1
  O  O4  1  0.25000000  0.64066000  0.80526000  1
  O  O5  1  0.75000000  0.35934000  0.19474000  1
  O  O6  1  0.75000000  0.68154000  0.41209000  1
  O  O7  1  0.25000000  0.31846000  0.58791000  1
