# generated using pymatgen
data_AuClO2
_symmetry_space_group_name_H-M   'P 1'
_cell_length_a   3.43203000
_cell_length_b   4.45939000
_cell_length_c   11.98519951
_cell_angle_alpha   79.81105477
_cell_angle_beta   90.00000000
_cell_angle_gamma   90.00000000
_symmetry_Int_Tables_number   1
_chemical_formula_structural   AuClO2
_chemical_formula_sum   'Au2 Cl2 O4'
_cell_volume   180.53785995
_cell_formula_units_Z   2
loop_
 _symmetry_equiv_pos_site_id
 _symmetry_equiv_pos_as_xyz
  1  'x, y, z'
loop_
 _atom_site_type_symbol
 _atom_site_label
 _atom_site_symmetry_multiplicity
 _atom_site_fract_x
 _atom_site_fract_y
 _atom_site_fract_z
 _atom_site_occupancy
  Au  Au0  1  0.25000000  0.86628000  0.07280000  1
  Au  Au1  1  0.75000000  0.13372000  0.92720000  1
  Cl  Cl2  1  0.75000000  0.63048000  0.20158000  1
  Cl  Cl3  1  0.25000000  0.36952000  0.79842000  1
  O  O4  1  0.25000000  0.14376000  0.43417000  1
  O  O5  1  0.75000000  0.13669000  0.54977000  1
  O  O6  1  0.75000000  0.85624000  0.56583000  1
  O  O7  1  0.25000000  0.86331000  0.45023000  1
