# generated using pymatgen
data_TlCuO2
_symmetry_space_group_name_H-M   'P 1'
_cell_length_a   5.48564600
_cell_length_b   5.67506900
_cell_length_c   5.85991479
_cell_angle_alpha   61.67461689
_cell_angle_beta   90.00000000
_cell_angle_gamma   90.00000000
_symmetry_Int_Tables_number   1
_chemical_formula_structural   TlCuO2
_chemical_formula_sum   'Tl2 Cu2 O4'
_cell_volume   160.58492133
_cell_formula_units_Z   2
loop_
 _symmetry_equiv_pos_site_id
 _symmetry_equiv_pos_as_xyz
  1  'x, y, z'
loop_
 _atom_site_type_symbol
 _atom_site_label
 _atom_site_symmetry_multiplicity
 _atom_site_fract_x
 _atom_site_fract_y
 _atom_site_fract_z
 _atom_site_occupancy
  Tl  Tl0  1  0.75000000  0.69526500  0.14072000  1
  Tl  Tl1  1  0.25000000  0.30473500  0.85928000  1
  Cu  Cu2  1  0.25000000  0.98813000  0.50530000  1
  Cu  Cu3  1  0.75000000  0.01187000  0.49470000  1
  O  O4  1  0.00003800  0.99998100  0.71311600  1
  O  O5  1  0.99996200  0.00001900  0.28688400  1
  O  O6  1  0.50003800  0.00001900  0.28688400  1
  O  O7  1  0.49996200  0.99998100  0.71311600  1
