# generated using pymatgen
data_SrAgO2
_symmetry_space_group_name_H-M   'P 1'
_cell_length_a   5.46400825
_cell_length_b   5.46400825
_cell_length_c   5.46400825
_cell_angle_alpha   113.20857362
_cell_angle_beta   113.20857362
_cell_angle_gamma   102.23026812
_symmetry_Int_Tables_number   1
_chemical_formula_structural   SrAgO2
_chemical_formula_sum   'Sr2 Ag2 O4'
_cell_volume   124.09995145
_cell_formula_units_Z   2
loop_
 _symmetry_equiv_pos_site_id
 _symmetry_equiv_pos_as_xyz
  1  'x, y, z'
loop_
 _atom_site_type_symbol
 _atom_site_label
 _atom_site_symmetry_multiplicity
 _atom_site_fract_x
 _atom_site_fract_y
 _atom_site_fract_z
 _atom_site_occupancy
  Sr  Sr0  1  0.25000000  0.75000000  0.50000000  1
  Sr  Sr1  1  0.75000000  0.25000000  0.50000000  1
  Ag  Ag2  1  0.50000000  0.50000000  0.00000000  1
  Ag  Ag3  1  0.00000000  0.00000000  0.00000000  1
  O  O4  1  0.23845000  0.26155000  0.50000000  1
  O  O5  1  0.73845000  0.23845000  0.97690000  1
  O  O6  1  0.76155000  0.73845000  0.50000000  1
  O  O7  1  0.26155000  0.76155000  0.02310000  1
