# generated using pymatgen
data_CsSeBr3
_symmetry_space_group_name_H-M   'P 1'
_cell_length_a   9.32187500
_cell_length_b   6.04660900
_cell_length_c   7.68406765
_cell_angle_alpha   80.62696368
_cell_angle_beta   90.00000000
_cell_angle_gamma   90.00000000
_symmetry_Int_Tables_number   1
_chemical_formula_structural   CsSeBr3
_chemical_formula_sum   'Cs2 Se2 Br6'
_cell_volume   427.33551039
_cell_formula_units_Z   2
loop_
 _symmetry_equiv_pos_site_id
 _symmetry_equiv_pos_as_xyz
  1  'x, y, z'
loop_
 _atom_site_type_symbol
 _atom_site_label
 _atom_site_symmetry_multiplicity
 _atom_site_fract_x
 _atom_site_fract_y
 _atom_site_fract_z
 _atom_site_occupancy
  Cs  Cs0  1  0.25000000  0.20345200  0.37588600  1
  Cs  Cs1  1  0.75000000  0.79654800  0.62411400  1
  Se  Se2  1  0.00000000  0.00000000  0.00000000  1
  Se  Se3  1  0.50000000  0.00000000  0.00000000  1
  Br  Br4  1  0.97709400  0.27964500  0.70432600  1
  Br  Br5  1  0.47709400  0.72035500  0.29567400  1
  Br  Br6  1  0.52290600  0.27964500  0.70432600  1
  Br  Br7  1  0.02290600  0.72035500  0.29567400  1
  Br  Br8  1  0.25000000  0.86315400  0.89593700  1
  Br  Br9  1  0.75000000  0.13684600  0.10406300  1
