# generated using pymatgen
data_RbCaBr3
_symmetry_space_group_name_H-M   'P 1'
_cell_length_a   4.41952100
_cell_length_b   9.84674800
_cell_length_c   16.38402500
_cell_angle_alpha   90.00000000
_cell_angle_beta   90.00000000
_cell_angle_gamma   90.00000000
_symmetry_Int_Tables_number   1
_chemical_formula_structural   RbCaBr3
_chemical_formula_sum   'Rb4 Ca4 Br12'
_cell_volume   712.99851831
_cell_formula_units_Z   4
loop_
 _symmetry_equiv_pos_site_id
 _symmetry_equiv_pos_as_xyz
  1  'x, y, z'
loop_
 _atom_site_type_symbol
 _atom_site_label
 _atom_site_symmetry_multiplicity
 _atom_site_fract_x
 _atom_site_fract_y
 _atom_site_fract_z
 _atom_site_occupancy
  Rb  Rb0  1  0.25000000  0.56974900  0.67872300  1
  Rb  Rb1  1  0.75000000  0.43025100  0.32127700  1
  Rb  Rb2  1  0.25000000  0.06974900  0.82127700  1
  Rb  Rb3  1  0.75000000  0.93025100  0.17872300  1
  Ca  Ca4  1  0.75000000  0.66912400  0.94466900  1
  Ca  Ca5  1  0.25000000  0.33087600  0.05533100  1
  Ca  Ca6  1  0.75000000  0.16912400  0.55533100  1
  Ca  Ca7  1  0.25000000  0.83087600  0.44466900  1
  Br  Br8  1  0.25000000  0.83249900  0.00879200  1
  Br  Br9  1  0.75000000  0.16750100  0.99120800  1
  Br  Br10  1  0.25000000  0.33249900  0.49120800  1
  Br  Br11  1  0.75000000  0.66750100  0.50879200  1
  Br  Br12  1  0.75000000  0.51818100  0.10114300  1
  Br  Br13  1  0.25000000  0.48181900  0.89885700  1
  Br  Br14  1  0.75000000  0.01818100  0.39885700  1
  Br  Br15  1  0.25000000  0.98181900  0.60114300  1
  Br  Br16  1  0.75000000  0.79040700  0.78850100  1
  Br  Br17  1  0.25000000  0.20959300  0.21149900  1
  Br  Br18  1  0.75000000  0.29040700  0.71149900  1
  Br  Br19  1  0.25000000  0.70959300  0.28850100  1
