# generated using pymatgen
data_SrAl2B2O7
_symmetry_space_group_name_H-M   'P 1'
_cell_length_a   8.61226850
_cell_length_b   8.61226850
_cell_length_c   8.61226870
_cell_angle_alpha   33.35354895
_cell_angle_beta   33.35354895
_cell_angle_gamma   33.35355019
_symmetry_Int_Tables_number   1
_chemical_formula_structural   SrAl2B2O7
_chemical_formula_sum   'Sr1 Al2 B2 O7'
_cell_volume   171.93562647
_cell_formula_units_Z   1
loop_
 _symmetry_equiv_pos_site_id
 _symmetry_equiv_pos_as_xyz
  1  'x, y, z'
loop_
 _atom_site_type_symbol
 _atom_site_label
 _atom_site_symmetry_multiplicity
 _atom_site_fract_x
 _atom_site_fract_y
 _atom_site_fract_z
 _atom_site_occupancy
  Sr  Sr0  1  0.00000000  0.00000000  0.00000000  1
  Al  Al1  1  0.43065500  0.43065500  0.43065500  1
  Al  Al2  1  0.56934500  0.56934500  0.56934500  1
  B  B3  1  0.26468300  0.26468300  0.26468300  1
  B  B4  1  0.73531700  0.73531700  0.73531700  1
  O  O5  1  0.67526200  0.03638400  0.48682900  1
  O  O6  1  0.03638400  0.48682900  0.67526200  1
  O  O7  1  0.48682900  0.67526200  0.03638400  1
  O  O8  1  0.50000000  0.50000000  0.50000000  1
  O  O9  1  0.96361600  0.32473800  0.51317100  1
  O  O10  1  0.32473800  0.51317100  0.96361600  1
  O  O11  1  0.51317100  0.96361600  0.32473800  1
