# generated using pymatgen
data_Gd2TeO2
_symmetry_space_group_name_H-M   'P 1'
_cell_length_a   6.94207194
_cell_length_b   6.94207194
_cell_length_c   6.94207194
_cell_angle_alpha   146.66953857
_cell_angle_beta   146.66953857
_cell_angle_gamma   47.85333473
_symmetry_Int_Tables_number   1
_chemical_formula_structural   Gd2TeO2
_chemical_formula_sum   'Gd2 Te1 O2'
_cell_volume   100.60044631
_cell_formula_units_Z   1
loop_
 _symmetry_equiv_pos_site_id
 _symmetry_equiv_pos_as_xyz
  1  'x, y, z'
loop_
 _atom_site_type_symbol
 _atom_site_label
 _atom_site_symmetry_multiplicity
 _atom_site_fract_x
 _atom_site_fract_y
 _atom_site_fract_z
 _atom_site_occupancy
  Gd  Gd0  1  0.66105500  0.66105500  0.00000000  1
  Gd  Gd1  1  0.33894500  0.33894500  0.00000000  1
  Te  Te2  1  0.00000000  0.00000000  0.00000000  1
  O  O3  1  0.75000000  0.25000000  0.50000000  1
  O  O4  1  0.25000000  0.75000000  0.50000000  1
