# generated using pymatgen
data_Gd2Si2O7
_symmetry_space_group_name_H-M   'P 1'
_cell_length_a   6.74854100
_cell_length_b   6.62296900
_cell_length_c   12.72865550
_cell_angle_alpha   71.84367560
_cell_angle_beta   90.00000000
_cell_angle_gamma   90.00000000
_symmetry_Int_Tables_number   1
_chemical_formula_structural   Gd2Si2O7
_chemical_formula_sum   'Gd8 Si8 O28'
_cell_volume   540.58585724
_cell_formula_units_Z   4
loop_
 _symmetry_equiv_pos_site_id
 _symmetry_equiv_pos_as_xyz
  1  'x, y, z'
loop_
 _atom_site_type_symbol
 _atom_site_label
 _atom_site_symmetry_multiplicity
 _atom_site_fract_x
 _atom_site_fract_y
 _atom_site_fract_z
 _atom_site_occupancy
  Gd  Gd0  1  0.82991900  0.15755700  0.15131600  1
  Gd  Gd1  1  0.32991900  0.84244300  0.34868400  1
  Gd  Gd2  1  0.17008100  0.84244300  0.84868400  1
  Gd  Gd3  1  0.67008100  0.15755700  0.65131600  1
  Gd  Gd4  1  0.61115100  0.47205700  0.86294000  1
  Gd  Gd5  1  0.11115100  0.52794300  0.63706000  1
  Gd  Gd6  1  0.38884900  0.52794300  0.13706000  1
  Gd  Gd7  1  0.88884900  0.47205700  0.36294000  1
  Si  Si8  1  0.91830900  0.71149700  0.11140100  1
  Si  Si9  1  0.41830900  0.28850300  0.38859900  1
  Si  Si10  1  0.08169100  0.28850300  0.88859900  1
  Si  Si11  1  0.58169100  0.71149700  0.61140100  1
  Si  Si12  1  0.67134200  0.89653300  0.91453300  1
  Si  Si13  1  0.17134200  0.10346700  0.58546700  1
  Si  Si14  1  0.32865800  0.10346700  0.08546700  1
  Si  Si15  1  0.82865800  0.89653300  0.41453300  1
  O  O16  1  0.10502900  0.66362900  0.04264800  1
  O  O17  1  0.60502900  0.33637100  0.45735200  1
  O  O18  1  0.89497100  0.33637100  0.95735200  1
  O  O19  1  0.39497100  0.66362900  0.54264800  1
  O  O20  1  0.83070000  0.78336500  0.85402500  1
  O  O21  1  0.33070000  0.21663500  0.64597500  1
  O  O22  1  0.16930000  0.21663500  0.14597500  1
  O  O23  1  0.66930000  0.78336500  0.35402500  1
  O  O24  1  0.59487800  0.12820900  0.83866900  1
  O  O25  1  0.09487800  0.87179100  0.66133100  1
  O  O26  1  0.40512200  0.87179100  0.16133100  1
  O  O27  1  0.90512200  0.12820900  0.33866900  1
  O  O28  1  0.98131100  0.80144900  0.21238500  1
  O  O29  1  0.48131100  0.19855100  0.28761500  1
  O  O30  1  0.01868900  0.19855100  0.78761500  1
  O  O31  1  0.51868900  0.80144900  0.71238500  1
  O  O32  1  0.72224500  0.90759700  0.53150400  1
  O  O33  1  0.22224500  0.09240300  0.96849600  1
  O  O34  1  0.27775500  0.09240300  0.46849600  1
  O  O35  1  0.77775500  0.90759700  0.03150400  1
  O  O36  1  0.01509600  0.72479000  0.45029300  1
  O  O37  1  0.51509600  0.27521000  0.04970700  1
  O  O38  1  0.98490400  0.27521000  0.54970700  1
  O  O39  1  0.48490400  0.72479000  0.95029300  1
  O  O40  1  0.72365800  0.50214000  0.66823300  1
  O  O41  1  0.22365800  0.49786000  0.83176700  1
  O  O42  1  0.27634200  0.49786000  0.33176700  1
  O  O43  1  0.77634200  0.50214000  0.16823300  1
