# generated using pymatgen
data_Al3Ni5
_symmetry_space_group_name_H-M   'P 1'
_cell_length_a   4.99555200
_cell_length_b   4.99555200
_cell_length_c   3.74049400
_cell_angle_alpha   90.00000000
_cell_angle_beta   90.00000000
_cell_angle_gamma   97.46149984
_symmetry_Int_Tables_number   1
_chemical_formula_structural   Al3Ni5
_chemical_formula_sum   'Al3 Ni5'
_cell_volume   92.55562466
_cell_formula_units_Z   1
loop_
 _symmetry_equiv_pos_site_id
 _symmetry_equiv_pos_as_xyz
  1  'x, y, z'
loop_
 _atom_site_type_symbol
 _atom_site_label
 _atom_site_symmetry_multiplicity
 _atom_site_fract_x
 _atom_site_fract_y
 _atom_site_fract_z
 _atom_site_occupancy
  Al  Al0  1  0.72446800  0.27553200  0.50000000  1
  Al  Al1  1  0.27553200  0.72446800  0.50000000  1
  Al  Al2  1  0.00000000  0.00000000  0.00000000  1
  Ni  Ni3  1  0.77410100  0.77410100  0.50000000  1
  Ni  Ni4  1  0.22589900  0.22589900  0.50000000  1
  Ni  Ni5  1  0.50000000  0.00000000  0.00000000  1
  Ni  Ni6  1  0.00000000  0.50000000  0.00000000  1
  Ni  Ni7  1  0.50000000  0.50000000  0.00000000  1
