# generated using pymatgen
data_SrAlF5
_symmetry_space_group_name_H-M   'P 1'
_cell_length_a   7.54791700
_cell_length_b   9.07104400
_cell_length_c   13.64055689
_cell_angle_alpha   52.76253721
_cell_angle_beta   90.00000000
_cell_angle_gamma   90.00000000
_symmetry_Int_Tables_number   1
_chemical_formula_structural   SrAlF5
_chemical_formula_sum   'Sr8 Al8 F40'
_cell_volume   743.53753486
_cell_formula_units_Z   8
loop_
 _symmetry_equiv_pos_site_id
 _symmetry_equiv_pos_as_xyz
  1  'x, y, z'
loop_
 _atom_site_type_symbol
 _atom_site_label
 _atom_site_symmetry_multiplicity
 _atom_site_fract_x
 _atom_site_fract_y
 _atom_site_fract_z
 _atom_site_occupancy
  Sr  Sr0  1  0.22074000  0.67972200  0.63817500  1
  Sr  Sr1  1  0.72074000  0.32027800  0.86182500  1
  Sr  Sr2  1  0.77926000  0.32027800  0.36182500  1
  Sr  Sr3  1  0.27926000  0.67972200  0.13817500  1
  Sr  Sr4  1  0.27756500  0.24057900  0.53812600  1
  Sr  Sr5  1  0.77756500  0.75942100  0.96187400  1
  Sr  Sr6  1  0.72243500  0.75942100  0.46187400  1
  Sr  Sr7  1  0.22243500  0.24057900  0.03812600  1
  Al  Al8  1  0.29399600  0.79757600  0.83511300  1
  Al  Al9  1  0.79399600  0.20242400  0.66488700  1
  Al  Al10  1  0.70600400  0.20242400  0.16488700  1
  Al  Al11  1  0.20600400  0.79757600  0.33511300  1
  Al  Al12  1  0.19990200  0.19616100  0.81300200  1
  Al  Al13  1  0.69990200  0.80383900  0.68699800  1
  Al  Al14  1  0.80009800  0.80383900  0.18699800  1
  Al  Al15  1  0.30009800  0.19616100  0.31300200  1
  F  F16  1  0.93517900  0.65169300  0.16819600  1
  F  F17  1  0.43517900  0.34830700  0.33180400  1
  F  F18  1  0.06482100  0.34830700  0.83180400  1
  F  F19  1  0.56482100  0.65169300  0.66819600  1
  F  F20  1  0.49229900  0.86333600  0.72885900  1
  F  F21  1  0.99229900  0.13666400  0.77114100  1
  F  F22  1  0.50770100  0.13666400  0.27114100  1
  F  F23  1  0.00770100  0.86333600  0.22885900  1
  F  F24  1  0.44600500  0.72911400  0.95763800  1
  F  F25  1  0.94600500  0.27088600  0.54236200  1
  F  F26  1  0.55399500  0.27088600  0.04236200  1
  F  F27  1  0.05399500  0.72911400  0.45763800  1
  F  F28  1  0.39287100  0.27434000  0.85155200  1
  F  F29  1  0.89287100  0.72566000  0.64844800  1
  F  F30  1  0.60712900  0.72566000  0.14844800  1
  F  F31  1  0.10712900  0.27434000  0.35155200  1
  F  F32  1  0.18789600  0.04287200  0.28594500  1
  F  F33  1  0.68789600  0.95712800  0.21405500  1
  F  F34  1  0.81210400  0.95712800  0.71405500  1
  F  F35  1  0.31210400  0.04287200  0.78594500  1
  F  F36  1  0.26168400  0.38328400  0.15237300  1
  F  F37  1  0.76168400  0.61671600  0.34762700  1
  F  F38  1  0.73831600  0.61671600  0.84762700  1
  F  F39  1  0.23831600  0.38328400  0.65237300  1
  F  F40  1  0.33074400  0.90104000  0.19528200  1
  F  F41  1  0.83074400  0.09896000  0.30471800  1
  F  F42  1  0.66925600  0.09896000  0.80471800  1
  F  F43  1  0.16925600  0.90104000  0.69528200  1
  F  F44  1  0.39092400  0.74370400  0.43628300  1
  F  F45  1  0.89092400  0.25629600  0.06371700  1
  F  F46  1  0.60907600  0.25629600  0.56371700  1
  F  F47  1  0.10907600  0.74370400  0.93628300  1
  F  F48  1  0.21813200  0.57700100  0.36251100  1
  F  F49  1  0.71813200  0.42299900  0.13748900  1
  F  F50  1  0.78186800  0.42299900  0.63748900  1
  F  F51  1  0.28186800  0.57700100  0.86251100  1
  F  F52  1  0.68205300  0.98809200  0.52540900  1
  F  F53  1  0.18205300  0.01190800  0.97459100  1
  F  F54  1  0.31794700  0.01190800  0.47459100  1
  F  F55  1  0.81794700  0.98809200  0.02540900  1
