# generated using pymatgen
data_Dy2B4O9
_symmetry_space_group_name_H-M   'P 1'
_cell_length_a   6.19908700
_cell_length_b   6.46645311
_cell_length_c   7.50694285
_cell_angle_alpha   102.29036794
_cell_angle_beta   97.15931012
_cell_angle_gamma   102.36626375
_symmetry_Int_Tables_number   1
_chemical_formula_structural   Dy2B4O9
_chemical_formula_sum   'Dy4 B8 O18'
_cell_volume   282.60091695
_cell_formula_units_Z   2
loop_
 _symmetry_equiv_pos_site_id
 _symmetry_equiv_pos_as_xyz
  1  'x, y, z'
loop_
 _atom_site_type_symbol
 _atom_site_label
 _atom_site_symmetry_multiplicity
 _atom_site_fract_x
 _atom_site_fract_y
 _atom_site_fract_z
 _atom_site_occupancy
  Dy  Dy0  1  0.45050200  0.90983300  0.71343800  1
  Dy  Dy1  1  0.54949800  0.09016700  0.28656200  1
  Dy  Dy2  1  0.11443200  0.32448500  0.64180200  1
  Dy  Dy3  1  0.88556800  0.67551500  0.35819800  1
  B  B4  1  0.99449500  0.14567900  0.19012500  1
  B  B5  1  0.00550500  0.85432100  0.80987500  1
  B  B6  1  0.37330900  0.64355600  0.34882400  1
  B  B7  1  0.62669100  0.35644400  0.65117600  1
  B  B8  1  0.26949600  0.66624100  0.01836100  1
  B  B9  1  0.73050400  0.33375900  0.98163900  1
  B  B10  1  0.33860900  0.31922000  0.07445900  1
  B  B11  1  0.66139100  0.68078000  0.92554100  1
  O  O12  1  0.57845300  0.81674100  0.44485800  1
  O  O13  1  0.76282100  0.26306800  0.78974800  1
  O  O14  1  0.78109000  0.40447100  0.52291700  1
  O  O15  1  0.21891000  0.59552900  0.47708300  1
  O  O16  1  0.23717900  0.73693200  0.21025200  1
  O  O17  1  0.86044800  0.28209500  0.14345800  1
  O  O18  1  0.53978700  0.53688700  0.74715200  1
  O  O19  1  0.46021300  0.46311300  0.25284800  1
  O  O20  1  0.77338900  0.57072700  0.04093600  1
  O  O21  1  0.22661100  0.42927300  0.95906400  1
  O  O22  1  0.81186900  0.86648400  0.87739800  1
  O  O23  1  0.18813100  0.13351600  0.12260200  1
  O  O24  1  0.07020700  0.95745700  0.67620400  1
  O  O25  1  0.92979300  0.04254300  0.32379600  1
  O  O26  1  0.49523900  0.21061000  0.98157600  1
  O  O27  1  0.50476100  0.78939000  0.01842400  1
  O  O28  1  0.13955200  0.71790500  0.85654200  1
  O  O29  1  0.42154700  0.18325900  0.55514200  1
