# generated using pymatgen
data_Si3Os2
_symmetry_space_group_name_H-M   'P 1'
_cell_length_a   5.65095800
_cell_length_b   5.65095800
_cell_length_c   8.94389500
_cell_angle_alpha   90.00000000
_cell_angle_beta   90.00000000
_cell_angle_gamma   90.00000000
_symmetry_Int_Tables_number   1
_chemical_formula_structural   Si3Os2
_chemical_formula_sum   'Si12 Os8'
_cell_volume   285.60831759
_cell_formula_units_Z   4
loop_
 _symmetry_equiv_pos_site_id
 _symmetry_equiv_pos_as_xyz
  1  'x, y, z'
loop_
 _atom_site_type_symbol
 _atom_site_label
 _atom_site_symmetry_multiplicity
 _atom_site_fract_x
 _atom_site_fract_y
 _atom_site_fract_z
 _atom_site_occupancy
  Si  Si0  1  0.83152700  0.83152700  0.75000000  1
  Si  Si1  1  0.83152700  0.16847300  0.25000000  1
  Si  Si2  1  0.16847300  0.83152700  0.25000000  1
  Si  Si3  1  0.16847300  0.16847300  0.75000000  1
  Si  Si4  1  0.20604600  0.64402800  0.59075900  1
  Si  Si5  1  0.79395400  0.35597200  0.59075900  1
  Si  Si6  1  0.64402800  0.79395400  0.40924100  1
  Si  Si7  1  0.35597200  0.20604600  0.40924100  1
  Si  Si8  1  0.20604600  0.35597200  0.09075900  1
  Si  Si9  1  0.35597200  0.79395400  0.90924100  1
  Si  Si10  1  0.64402800  0.20604600  0.90924100  1
  Si  Si11  1  0.79395400  0.64402800  0.09075900  1
  Os  Os12  1  0.00000000  0.00000000  0.50000000  1
  Os  Os13  1  0.00000000  0.00000000  0.00000000  1
  Os  Os14  1  0.50000000  0.50000000  0.75000000  1
  Os  Os15  1  0.50000000  0.50000000  0.25000000  1
  Os  Os16  1  0.00000000  0.50000000  0.87186100  1
  Os  Os17  1  0.50000000  0.00000000  0.12813900  1
  Os  Os18  1  0.50000000  0.00000000  0.62813900  1
  Os  Os19  1  0.00000000  0.50000000  0.37186100  1
