# generated using pymatgen
data_AlAuO2
_symmetry_space_group_name_H-M   'P 1'
_cell_length_a   2.93385752
_cell_length_b   2.93385752
_cell_length_c   12.37706800
_cell_angle_alpha   90.00000000
_cell_angle_beta   90.00000000
_cell_angle_gamma   119.99998908
_symmetry_Int_Tables_number   1
_chemical_formula_structural   AlAuO2
_chemical_formula_sum   'Al2 Au2 O4'
_cell_volume   92.26277080
_cell_formula_units_Z   2
loop_
 _symmetry_equiv_pos_site_id
 _symmetry_equiv_pos_as_xyz
  1  'x, y, z'
loop_
 _atom_site_type_symbol
 _atom_site_label
 _atom_site_symmetry_multiplicity
 _atom_site_fract_x
 _atom_site_fract_y
 _atom_site_fract_z
 _atom_site_occupancy
  Al  Al0  1  0.00000000  0.00000000  0.00000000  1
  Al  Al1  1  0.00000000  0.00000000  0.50000000  1
  Au  Au2  1  0.66666700  0.33333300  0.75000000  1
  Au  Au3  1  0.33333300  0.66666700  0.25000000  1
  O  O4  1  0.33333300  0.66666700  0.42336600  1
  O  O5  1  0.66666700  0.33333300  0.92336600  1
  O  O6  1  0.33333300  0.66666700  0.07663400  1
  O  O7  1  0.66666700  0.33333300  0.57663400  1
