# generated using pymatgen
data_CaAlF5
_symmetry_space_group_name_H-M   'P 1'
_cell_length_a   9.96971600
_cell_length_b   5.42003300
_cell_length_c   7.42231296
_cell_angle_alpha   70.10374802
_cell_angle_beta   90.00000000
_cell_angle_gamma   90.00000000
_symmetry_Int_Tables_number   1
_chemical_formula_structural   CaAlF5
_chemical_formula_sum   'Ca4 Al4 F20'
_cell_volume   377.13359012
_cell_formula_units_Z   4
loop_
 _symmetry_equiv_pos_site_id
 _symmetry_equiv_pos_as_xyz
  1  'x, y, z'
loop_
 _atom_site_type_symbol
 _atom_site_label
 _atom_site_symmetry_multiplicity
 _atom_site_fract_x
 _atom_site_fract_y
 _atom_site_fract_z
 _atom_site_occupancy
  Ca  Ca0  1  0.98187600  0.47343300  0.25448100  1
  Ca  Ca1  1  0.48187600  0.52656700  0.24551900  1
  Ca  Ca2  1  0.01812400  0.52656700  0.74551900  1
  Ca  Ca3  1  0.51812400  0.47343300  0.75448100  1
  Al  Al4  1  0.75253100  0.10203100  0.60013000  1
  Al  Al5  1  0.25253100  0.89796900  0.89987000  1
  Al  Al6  1  0.24746900  0.89796900  0.39987000  1
  Al  Al7  1  0.74746900  0.10203100  0.10013000  1
  F  F8  1  0.61899100  0.34841100  0.51220800  1
  F  F9  1  0.11899100  0.65158900  0.98779200  1
  F  F10  1  0.38100900  0.65158900  0.48779200  1
  F  F11  1  0.88100900  0.34841100  0.01220800  1
  F  F12  1  0.78447500  0.13503700  0.34135400  1
  F  F13  1  0.28447500  0.86496300  0.15864600  1
  F  F14  1  0.21552500  0.86496300  0.65864600  1
  F  F15  1  0.71552500  0.13503700  0.84135400  1
  F  F16  1  0.38802500  0.11984000  0.81839800  1
  F  F17  1  0.88802500  0.88016000  0.68160200  1
  F  F18  1  0.61197500  0.88016000  0.18160200  1
  F  F19  1  0.11197500  0.11984000  0.31839800  1
  F  F20  1  0.63550400  0.84346900  0.64128900  1
  F  F21  1  0.13550400  0.15653100  0.85871100  1
  F  F22  1  0.36449600  0.15653100  0.35871100  1
  F  F23  1  0.86449600  0.84346900  0.14128900  1
  F  F24  1  0.37555200  0.62574000  0.94455800  1
  F  F25  1  0.87555200  0.37426000  0.55544200  1
  F  F26  1  0.62444800  0.37426000  0.05544200  1
  F  F27  1  0.12444800  0.62574000  0.44455800  1
