# generated using pymatgen
data_Ho2Si2O7
_symmetry_space_group_name_H-M   'P 1'
_cell_length_a   6.63854800
_cell_length_b   6.67128984
_cell_length_c   12.11895809
_cell_angle_alpha   94.28309489
_cell_angle_beta   91.48553120
_cell_angle_gamma   92.11316805
_symmetry_Int_Tables_number   1
_chemical_formula_structural   Ho2Si2O7
_chemical_formula_sum   'Ho8 Si8 O28'
_cell_volume   534.63605788
_cell_formula_units_Z   4
loop_
 _symmetry_equiv_pos_site_id
 _symmetry_equiv_pos_as_xyz
  1  'x, y, z'
loop_
 _atom_site_type_symbol
 _atom_site_label
 _atom_site_symmetry_multiplicity
 _atom_site_fract_x
 _atom_site_fract_y
 _atom_site_fract_z
 _atom_site_occupancy
  Ho  Ho0  1  0.67441500  0.17327800  0.89008100  1
  Ho  Ho1  1  0.32558500  0.82672200  0.10991900  1
  Ho  Ho2  1  0.36743400  0.21525000  0.63446800  1
  Ho  Ho3  1  0.63256600  0.78475000  0.36553200  1
  Ho  Ho4  1  0.88186800  0.91028000  0.64434700  1
  Ho  Ho5  1  0.11813200  0.08972000  0.35565300  1
  Ho  Ho6  1  0.95008200  0.67245400  0.88542800  1
  Ho  Ho7  1  0.04991800  0.32754600  0.11457200  1
  Si  Si8  1  0.14446300  0.62520200  0.37758200  1
  Si  Si9  1  0.85553700  0.37479800  0.62241800  1
  Si  Si10  1  0.37726700  0.72402400  0.59374700  1
  Si  Si11  1  0.62273300  0.27597600  0.40625300  1
  Si  Si12  1  0.48728000  0.66526000  0.82470100  1
  Si  Si13  1  0.51272000  0.33474000  0.17529900  1
  Si  Si14  1  0.15550400  0.14807400  0.88542900  1
  Si  Si15  1  0.84449600  0.85192600  0.11457100  1
  O  O16  1  0.00082900  0.98479900  0.81491200  1
  O  O17  1  0.99917100  0.01520100  0.18508800  1
  O  O18  1  0.00019500  0.33327500  0.91844700  1
  O  O19  1  0.99980500  0.66672500  0.08155300  1
  O  O20  1  0.34976100  0.20929300  0.81524300  1
  O  O21  1  0.65023900  0.79070700  0.18475700  1
  O  O22  1  0.23001000  0.08338100  0.00604300  1
  O  O23  1  0.76999000  0.91661900  0.99395700  1
  O  O24  1  0.07593100  0.41414600  0.30907100  1
  O  O25  1  0.92406900  0.58585400  0.69092900  1
  O  O26  1  0.96195500  0.77202000  0.41760800  1
  O  O27  1  0.03804500  0.22798000  0.58239200  1
  O  O28  1  0.29039500  0.78239800  0.31160700  1
  O  O29  1  0.70960500  0.21760200  0.68839300  1
  O  O30  1  0.28255000  0.57353300  0.48848900  1
  O  O31  1  0.71745000  0.42646700  0.51151100  1
  O  O32  1  0.35386200  0.48832500  0.12571700  1
  O  O33  1  0.64613800  0.51167500  0.87428300  1
  O  O34  1  0.38383500  0.13631200  0.21228000  1
  O  O35  1  0.61616500  0.86368800  0.78772000  1
  O  O36  1  0.70084100  0.29470100  0.09444500  1
  O  O37  1  0.29915900  0.70529900  0.90555500  1
  O  O38  1  0.59949100  0.43420800  0.30619200  1
  O  O39  1  0.40050900  0.56579200  0.69380800  1
  O  O40  1  0.41284500  0.17460000  0.44824000  1
  O  O41  1  0.58715500  0.82540000  0.55176000  1
  O  O42  1  0.77393800  0.09699000  0.37719300  1
  O  O43  1  0.22606200  0.90301000  0.62280700  1
