# generated using pymatgen
data_Er2SiO5
_symmetry_space_group_name_H-M   'P 1'
_cell_length_a   6.77365000
_cell_length_b   6.70942200
_cell_length_c   9.14488135
_cell_angle_alpha   76.43192996
_cell_angle_beta   90.00000000
_cell_angle_gamma   90.00000000
_symmetry_Int_Tables_number   1
_chemical_formula_structural   Er2SiO5
_chemical_formula_sum   'Er8 Si4 O20'
_cell_volume   404.01106174
_cell_formula_units_Z   4
loop_
 _symmetry_equiv_pos_site_id
 _symmetry_equiv_pos_as_xyz
  1  'x, y, z'
loop_
 _atom_site_type_symbol
 _atom_site_label
 _atom_site_symmetry_multiplicity
 _atom_site_fract_x
 _atom_site_fract_y
 _atom_site_fract_z
 _atom_site_occupancy
  Er  Er0  1  0.12090700  0.73101900  0.46879400  1
  Er  Er1  1  0.62090700  0.76898100  0.53120600  1
  Er  Er2  1  0.87909300  0.26898100  0.53120600  1
  Er  Er3  1  0.37909300  0.23101900  0.46879400  1
  Er  Er4  1  0.64043600  0.97071500  0.86156100  1
  Er  Er5  1  0.14043600  0.52928500  0.13843900  1
  Er  Er6  1  0.35956400  0.02928500  0.13843900  1
  Er  Er7  1  0.85956400  0.47071500  0.86156100  1
  Si  Si8  1  0.09356400  0.98786200  0.79841000  1
  Si  Si9  1  0.59356400  0.51213800  0.20159000  1
  Si  Si10  1  0.90643600  0.01213800  0.20159000  1
  Si  Si11  1  0.40643600  0.48786200  0.79841000  1
  O  O12  1  0.87927100  0.56799100  0.60989500  1
  O  O13  1  0.37927100  0.93200900  0.39010500  1
  O  O14  1  0.12072900  0.43200900  0.39010500  1
  O  O15  1  0.62072900  0.06799100  0.60989500  1
  O  O16  1  0.29097500  0.98883500  0.89793300  1
  O  O17  1  0.79097500  0.51116500  0.10206700  1
  O  O18  1  0.70902500  0.01116500  0.10206700  1
  O  O19  1  0.20902500  0.48883500  0.89793300  1
  O  O20  1  0.14153700  0.01917000  0.61484300  1
  O  O21  1  0.64153700  0.48083000  0.38515700  1
  O  O22  1  0.85846300  0.98083000  0.38515700  1
  O  O23  1  0.35846300  0.51917000  0.61484300  1
  O  O24  1  0.56550300  0.68169900  0.78944400  1
  O  O25  1  0.06550300  0.81830100  0.21055600  1
  O  O26  1  0.43449700  0.31830100  0.21055600  1
  O  O27  1  0.93449700  0.18169900  0.78944400  1
  O  O28  1  0.55926700  0.29791300  0.86196600  1
  O  O29  1  0.05926700  0.20208700  0.13803400  1
  O  O30  1  0.44073300  0.70208700  0.13803400  1
  O  O31  1  0.94073300  0.79791300  0.86196600  1
