# generated using pymatgen
data_TaC
_symmetry_space_group_name_H-M   'P 1'
_cell_length_a   3.05739771
_cell_length_b   3.05739771
_cell_length_c   2.88087900
_cell_angle_alpha   90.00000000
_cell_angle_beta   90.00000000
_cell_angle_gamma   119.99999368
_symmetry_Int_Tables_number   1
_chemical_formula_structural   TaC
_chemical_formula_sum   'Ta1 C1'
_cell_volume   23.32166477
_cell_formula_units_Z   1
loop_
 _symmetry_equiv_pos_site_id
 _symmetry_equiv_pos_as_xyz
  1  'x, y, z'
loop_
 _atom_site_type_symbol
 _atom_site_label
 _atom_site_symmetry_multiplicity
 _atom_site_fract_x
 _atom_site_fract_y
 _atom_site_fract_z
 _atom_site_occupancy
  Ta  Ta0  1  0.66666700  0.33333300  0.00000000  1
  C  C1  1  0.00000000  0.00000000  0.50000000  1
