# generated using pymatgen
data_Tm2ZnS4
_symmetry_space_group_name_H-M   'P 1'
_cell_length_a   6.29319200
_cell_length_b   7.79425000
_cell_length_c   13.39512100
_cell_angle_alpha   90.00000000
_cell_angle_beta   90.00000000
_cell_angle_gamma   90.00000000
_symmetry_Int_Tables_number   1
_chemical_formula_structural   Tm2ZnS4
_chemical_formula_sum   'Tm8 Zn4 S16'
_cell_volume   657.04021897
_cell_formula_units_Z   4
loop_
 _symmetry_equiv_pos_site_id
 _symmetry_equiv_pos_as_xyz
  1  'x, y, z'
loop_
 _atom_site_type_symbol
 _atom_site_label
 _atom_site_symmetry_multiplicity
 _atom_site_fract_x
 _atom_site_fract_y
 _atom_site_fract_z
 _atom_site_occupancy
  Tm  Tm0  1  0.50295300  0.75000000  0.76511500  1
  Tm  Tm1  1  0.00295300  0.25000000  0.73488500  1
  Tm  Tm2  1  0.49704700  0.25000000  0.23488500  1
  Tm  Tm3  1  0.99704700  0.75000000  0.26511500  1
  Tm  Tm4  1  0.50000000  0.50000000  0.50000000  1
  Tm  Tm5  1  0.00000000  0.50000000  0.00000000  1
  Tm  Tm6  1  0.50000000  0.00000000  0.50000000  1
  Tm  Tm7  1  0.00000000  0.00000000  0.00000000  1
  Zn  Zn8  1  0.08858500  0.75000000  0.59157500  1
  Zn  Zn9  1  0.58858500  0.25000000  0.90842500  1
  Zn  Zn10  1  0.91141500  0.25000000  0.40842500  1
  Zn  Zn11  1  0.41141500  0.75000000  0.09157500  1
  S  S12  1  0.24247500  0.51160800  0.16833000  1
  S  S13  1  0.74247500  0.48839200  0.33167000  1
  S  S14  1  0.75752500  0.01160800  0.83167000  1
  S  S15  1  0.25752500  0.98839200  0.66833000  1
  S  S16  1  0.75752500  0.48839200  0.83167000  1
  S  S17  1  0.25752500  0.51160800  0.66833000  1
  S  S18  1  0.24247500  0.98839200  0.16833000  1
  S  S19  1  0.74247500  0.01160800  0.33167000  1
  S  S20  1  0.25476400  0.75000000  0.92901100  1
  S  S21  1  0.75476400  0.25000000  0.57098900  1
  S  S22  1  0.74523600  0.25000000  0.07098900  1
  S  S23  1  0.24523600  0.75000000  0.42901100  1
  S  S24  1  0.77724000  0.75000000  0.09032100  1
  S  S25  1  0.27724000  0.25000000  0.40967900  1
  S  S26  1  0.22276000  0.25000000  0.90967900  1
  S  S27  1  0.72276000  0.75000000  0.59032100  1
