# generated using pymatgen
data_Sr2SnSe3F2
_symmetry_space_group_name_H-M   'P 1'
_cell_length_a   6.19249000
_cell_length_b   6.19838100
_cell_length_c   19.73559600
_cell_angle_alpha   90.00000000
_cell_angle_beta   90.00000000
_cell_angle_gamma   90.00000000
_symmetry_Int_Tables_number   1
_chemical_formula_structural   Sr2SnSe3F2
_chemical_formula_sum   'Sr8 Sn4 Se12 F8'
_cell_volume   757.51951941
_cell_formula_units_Z   4
loop_
 _symmetry_equiv_pos_site_id
 _symmetry_equiv_pos_as_xyz
  1  'x, y, z'
loop_
 _atom_site_type_symbol
 _atom_site_label
 _atom_site_symmetry_multiplicity
 _atom_site_fract_x
 _atom_site_fract_y
 _atom_site_fract_z
 _atom_site_occupancy
  Sr  Sr0  1  0.50471900  0.75421300  0.06953300  1
  Sr  Sr1  1  0.00471900  0.74578700  0.93046700  1
  Sr  Sr2  1  0.99528100  0.25421300  0.43046700  1
  Sr  Sr3  1  0.49528100  0.24578700  0.56953300  1
  Sr  Sr4  1  0.50471900  0.75421300  0.43046700  1
  Sr  Sr5  1  0.00471900  0.74578700  0.56953300  1
  Sr  Sr6  1  0.99528100  0.25421300  0.06953300  1
  Sr  Sr7  1  0.49528100  0.24578700  0.93046700  1
  Sn  Sn8  1  0.58037500  0.14605500  0.25000000  1
  Sn  Sn9  1  0.08037500  0.35394500  0.75000000  1
  Sn  Sn10  1  0.91962500  0.64605500  0.25000000  1
  Sn  Sn11  1  0.41962500  0.85394500  0.75000000  1
  Se  Se12  1  0.48736900  0.25720700  0.36942900  1
  Se  Se13  1  0.98736900  0.24279300  0.63057100  1
  Se  Se14  1  0.01263100  0.75720700  0.13057100  1
  Se  Se15  1  0.51263100  0.74279300  0.86942900  1
  Se  Se16  1  0.50717500  0.73346000  0.25000000  1
  Se  Se17  1  0.00717500  0.76654000  0.75000000  1
  Se  Se18  1  0.99282500  0.23346000  0.25000000  1
  Se  Se19  1  0.49282500  0.26654000  0.75000000  1
  Se  Se20  1  0.48736900  0.25720700  0.13057100  1
  Se  Se21  1  0.98736900  0.24279300  0.86942900  1
  Se  Se22  1  0.01263100  0.75720700  0.36942900  1
  Se  Se23  1  0.51263100  0.74279300  0.63057100  1
  F  F24  1  0.25331100  0.49872600  0.49932600  1
  F  F25  1  0.75331100  0.00127400  0.50067400  1
  F  F26  1  0.24668900  0.99872600  0.00067400  1
  F  F27  1  0.74668900  0.50127400  0.99932600  1
  F  F28  1  0.74668900  0.50127400  0.50067400  1
  F  F29  1  0.24668900  0.99872600  0.49932600  1
  F  F30  1  0.75331100  0.00127400  0.99932600  1
  F  F31  1  0.25331100  0.49872600  0.00067400  1
