# generated using pymatgen
data_Rh2O3
_symmetry_space_group_name_H-M   'P 1'
_cell_length_a   5.26003000
_cell_length_b   5.45300100
_cell_length_c   7.37585000
_cell_angle_alpha   90.00000000
_cell_angle_beta   90.00000000
_cell_angle_gamma   90.00000000
_symmetry_Int_Tables_number   1
_chemical_formula_structural   Rh2O3
_chemical_formula_sum   'Rh8 O12'
_cell_volume   211.56112828
_cell_formula_units_Z   4
loop_
 _symmetry_equiv_pos_site_id
 _symmetry_equiv_pos_as_xyz
  1  'x, y, z'
loop_
 _atom_site_type_symbol
 _atom_site_label
 _atom_site_symmetry_multiplicity
 _atom_site_fract_x
 _atom_site_fract_y
 _atom_site_fract_z
 _atom_site_occupancy
  Rh  Rh0  1  0.74968200  0.03009200  0.10731300  1
  Rh  Rh1  1  0.74968200  0.46990800  0.89268700  1
  Rh  Rh2  1  0.75031800  0.53009200  0.39268700  1
  Rh  Rh3  1  0.75031800  0.96990800  0.60731300  1
  Rh  Rh4  1  0.25031800  0.96990800  0.89268700  1
  Rh  Rh5  1  0.25031800  0.53009200  0.10731300  1
  Rh  Rh6  1  0.24968200  0.46990800  0.60731300  1
  Rh  Rh7  1  0.24968200  0.03009200  0.39268700  1
  O  O8  1  0.05012000  0.25000000  0.00000000  1
  O  O9  1  0.44988000  0.75000000  0.50000000  1
  O  O10  1  0.94988000  0.75000000  0.00000000  1
  O  O11  1  0.55012000  0.25000000  0.50000000  1
  O  O12  1  0.60722300  0.11204600  0.84891300  1
  O  O13  1  0.60722300  0.38795400  0.15108700  1
  O  O14  1  0.89277700  0.61204600  0.65108700  1
  O  O15  1  0.89277700  0.88795400  0.34891300  1
  O  O16  1  0.39277700  0.88795400  0.15108700  1
  O  O17  1  0.39277700  0.61204600  0.84891300  1
  O  O18  1  0.10722300  0.38795400  0.34891300  1
  O  O19  1  0.10722300  0.11204600  0.65108700  1
