# generated using pymatgen
data_KTiP2O7
_symmetry_space_group_name_H-M   'P 1'
_cell_length_a   10.44252800
_cell_length_b   7.52028900
_cell_length_c   8.29585120
_cell_angle_alpha   73.39935992
_cell_angle_beta   90.00000000
_cell_angle_gamma   90.00000000
_symmetry_Int_Tables_number   1
_chemical_formula_structural   KTiP2O7
_chemical_formula_sum   'K4 Ti4 P8 O28'
_cell_volume   624.32597599
_cell_formula_units_Z   4
loop_
 _symmetry_equiv_pos_site_id
 _symmetry_equiv_pos_as_xyz
  1  'x, y, z'
loop_
 _atom_site_type_symbol
 _atom_site_label
 _atom_site_symmetry_multiplicity
 _atom_site_fract_x
 _atom_site_fract_y
 _atom_site_fract_z
 _atom_site_occupancy
  K  K0  1  0.17556500  0.18063500  0.44085300  1
  K  K1  1  0.67556500  0.81936500  0.05914700  1
  K  K2  1  0.82443500  0.81936500  0.55914700  1
  K  K3  1  0.32443500  0.18063500  0.94085300  1
  Ti  Ti4  1  0.10162900  0.76408200  0.25956100  1
  Ti  Ti5  1  0.60162900  0.23591800  0.24043900  1
  Ti  Ti6  1  0.89837100  0.23591800  0.74043900  1
  Ti  Ti7  1  0.39837100  0.76408200  0.75956100  1
  P  P8  1  0.40222000  0.86664300  0.32645000  1
  P  P9  1  0.90222000  0.13335700  0.17355000  1
  P  P10  1  0.59778000  0.13335700  0.67355000  1
  P  P11  1  0.09778000  0.86664300  0.82645000  1
  P  P12  1  0.36124000  0.55627400  0.18985600  1
  P  P13  1  0.86124000  0.44372600  0.31014400  1
  P  P14  1  0.63876000  0.44372600  0.81014400  1
  P  P15  1  0.13876000  0.55627400  0.68985600  1
  O  O16  1  0.40853700  0.84974200  0.51354800  1
  O  O17  1  0.90853700  0.15025800  0.98645200  1
  O  O18  1  0.59146300  0.15025800  0.48645200  1
  O  O19  1  0.09146300  0.84974200  0.01354800  1
  O  O20  1  0.26795600  0.92175300  0.25386400  1
  O  O21  1  0.76795600  0.07824700  0.24613600  1
  O  O22  1  0.73204400  0.07824700  0.74613600  1
  O  O23  1  0.23204400  0.92175300  0.75386400  1
  O  O24  1  0.00441000  0.00425400  0.27588600  1
  O  O25  1  0.50441000  0.99574600  0.22411400  1
  O  O26  1  0.99559000  0.99574600  0.72411400  1
  O  O27  1  0.49559000  0.00425400  0.77588600  1
  O  O28  1  0.43584200  0.66137700  0.30984200  1
  O  O29  1  0.93584200  0.33862300  0.19015800  1
  O  O30  1  0.56415800  0.33862300  0.69015800  1
  O  O31  1  0.06415800  0.66137700  0.80984200  1
  O  O32  1  0.28087300  0.54427800  0.73805100  1
  O  O33  1  0.78087300  0.45572200  0.76194900  1
  O  O34  1  0.71912700  0.45572200  0.26194900  1
  O  O35  1  0.21912700  0.54427800  0.23805200  1
  O  O36  1  0.57974800  0.63660900  0.77126400  1
  O  O37  1  0.07974800  0.36339100  0.72873600  1
  O  O38  1  0.42025200  0.36339100  0.22873600  1
  O  O39  1  0.92025200  0.63660900  0.27126400  1
  O  O40  1  0.38841100  0.67637600  0.00949800  1
  O  O41  1  0.88841100  0.32362400  0.49050200  1
  O  O42  1  0.61158900  0.32362400  0.99050200  1
  O  O43  1  0.11158900  0.67637600  0.50949800  1
