# generated using pymatgen
data_Ca2As
_symmetry_space_group_name_H-M   'P 1'
_cell_length_a   8.57127526
_cell_length_b   8.57127526
_cell_length_c   8.57127526
_cell_angle_alpha   149.06064757
_cell_angle_beta   149.06064757
_cell_angle_gamma   44.32204367
_symmetry_Int_Tables_number   1
_chemical_formula_structural   Ca2As
_chemical_formula_sum   'Ca4 As2'
_cell_volume   165.96074460
_cell_formula_units_Z   2
loop_
 _symmetry_equiv_pos_site_id
 _symmetry_equiv_pos_as_xyz
  1  'x, y, z'
loop_
 _atom_site_type_symbol
 _atom_site_label
 _atom_site_symmetry_multiplicity
 _atom_site_fract_x
 _atom_site_fract_y
 _atom_site_fract_z
 _atom_site_occupancy
  Ca  Ca0  1  0.00000000  0.50000000  0.50000000  1
  Ca  Ca1  1  0.50000000  0.00000000  0.50000000  1
  Ca  Ca2  1  0.32078400  0.32078400  0.00000000  1
  Ca  Ca3  1  0.67921600  0.67921600  0.00000000  1
  As  As4  1  0.13439100  0.13439100  0.00000000  1
  As  As5  1  0.86560900  0.86560900  0.00000000  1
