# generated using pymatgen
data_BaGe
_symmetry_space_group_name_H-M   'P 1'
_cell_length_a   6.60036809
_cell_length_b   6.60036809
_cell_length_c   4.36416300
_cell_angle_alpha   90.00000000
_cell_angle_beta   90.00000000
_cell_angle_gamma   134.56766543
_symmetry_Int_Tables_number   1
_chemical_formula_structural   BaGe
_chemical_formula_sum   'Ba2 Ge2'
_cell_volume   135.44865994
_cell_formula_units_Z   2
loop_
 _symmetry_equiv_pos_site_id
 _symmetry_equiv_pos_as_xyz
  1  'x, y, z'
loop_
 _atom_site_type_symbol
 _atom_site_label
 _atom_site_symmetry_multiplicity
 _atom_site_fract_x
 _atom_site_fract_y
 _atom_site_fract_z
 _atom_site_occupancy
  Ba  Ba0  1  0.13681100  0.86318900  0.25000000  1
  Ba  Ba1  1  0.86318900  0.13681100  0.75000000  1
  Ge  Ge2  1  0.43584700  0.56415300  0.25000000  1
  Ge  Ge3  1  0.56415300  0.43584700  0.75000000  1
