# generated using pymatgen
data_Ho2SiSO4
_symmetry_space_group_name_H-M   'P 1'
_cell_length_a   6.11400200
_cell_length_b   6.92184300
_cell_length_c   10.69514900
_cell_angle_alpha   90.00000000
_cell_angle_beta   90.00000000
_cell_angle_gamma   90.00000000
_symmetry_Int_Tables_number   1
_chemical_formula_structural   Ho2SiSO4
_chemical_formula_sum   'Ho8 Si4 S4 O16'
_cell_volume   452.62043771
_cell_formula_units_Z   4
loop_
 _symmetry_equiv_pos_site_id
 _symmetry_equiv_pos_as_xyz
  1  'x, y, z'
loop_
 _atom_site_type_symbol
 _atom_site_label
 _atom_site_symmetry_multiplicity
 _atom_site_fract_x
 _atom_site_fract_y
 _atom_site_fract_z
 _atom_site_occupancy
  Ho  Ho0  1  0.38382600  0.75000000  0.50000000  1
  Ho  Ho1  1  0.38382600  0.75000000  0.00000000  1
  Ho  Ho2  1  0.61617400  0.25000000  0.50000000  1
  Ho  Ho3  1  0.61617400  0.25000000  0.00000000  1
  Ho  Ho4  1  0.84385700  0.52797400  0.75000000  1
  Ho  Ho5  1  0.84385700  0.97202600  0.25000000  1
  Ho  Ho6  1  0.15614300  0.02797400  0.75000000  1
  Ho  Ho7  1  0.15614300  0.47202600  0.25000000  1
  Si  Si8  1  0.12201700  0.25000000  0.00000000  1
  Si  Si9  1  0.87798300  0.75000000  0.00000000  1
  Si  Si10  1  0.87798300  0.75000000  0.50000000  1
  Si  Si11  1  0.12201700  0.25000000  0.50000000  1
  S  S12  1  0.52332900  0.81321500  0.75000000  1
  S  S13  1  0.52332900  0.68678500  0.25000000  1
  S  S14  1  0.47667100  0.31321500  0.75000000  1
  S  S15  1  0.47667100  0.18678500  0.25000000  1
  O  O16  1  0.28502800  0.43348600  0.02886500  1
  O  O17  1  0.28502800  0.06651400  0.97113500  1
  O  O18  1  0.71497200  0.93348600  0.47113500  1
  O  O19  1  0.71497200  0.56651400  0.52886500  1
  O  O20  1  0.71497200  0.56651400  0.97113500  1
  O  O21  1  0.71497200  0.93348600  0.02886500  1
  O  O22  1  0.28502800  0.06651400  0.52886500  1
  O  O23  1  0.28502800  0.43348600  0.47113500  1
  O  O24  1  0.03933400  0.73778000  0.12268400  1
  O  O25  1  0.03933400  0.73778000  0.37731600  1
  O  O26  1  0.96066600  0.23778000  0.37731600  1
  O  O27  1  0.96066600  0.26222000  0.62268400  1
  O  O28  1  0.96066600  0.26222000  0.87731600  1
  O  O29  1  0.96066600  0.23778000  0.12268400  1
  O  O30  1  0.03933400  0.76222000  0.62268400  1
  O  O31  1  0.03933400  0.76222000  0.87731600  1
