# generated using pymatgen
data_Cs2Se
_symmetry_space_group_name_H-M   'P 1'
_cell_length_a   5.62415800
_cell_length_b   9.09580400
_cell_length_c   10.99891300
_cell_angle_alpha   90.00000000
_cell_angle_beta   90.00000000
_cell_angle_gamma   90.00000000
_symmetry_Int_Tables_number   1
_chemical_formula_structural   Cs2Se
_chemical_formula_sum   'Cs8 Se4'
_cell_volume   562.66302033
_cell_formula_units_Z   4
loop_
 _symmetry_equiv_pos_site_id
 _symmetry_equiv_pos_as_xyz
  1  'x, y, z'
loop_
 _atom_site_type_symbol
 _atom_site_label
 _atom_site_symmetry_multiplicity
 _atom_site_fract_x
 _atom_site_fract_y
 _atom_site_fract_z
 _atom_site_occupancy
  Cs  Cs0  1  0.25000000  0.02360800  0.82936400  1
  Cs  Cs1  1  0.25000000  0.52360800  0.67063600  1
  Cs  Cs2  1  0.75000000  0.97639200  0.17063600  1
  Cs  Cs3  1  0.75000000  0.47639200  0.32936400  1
  Cs  Cs4  1  0.25000000  0.14580600  0.42553200  1
  Cs  Cs5  1  0.25000000  0.64580600  0.07446800  1
  Cs  Cs6  1  0.75000000  0.85419400  0.57446800  1
  Cs  Cs7  1  0.75000000  0.35419400  0.92553200  1
  Se  Se8  1  0.25000000  0.24793800  0.11071800  1
  Se  Se9  1  0.25000000  0.74793800  0.38928200  1
  Se  Se10  1  0.75000000  0.75206200  0.88928200  1
  Se  Se11  1  0.75000000  0.25206200  0.61071800  1
