# generated using pymatgen
data_Na2UO4
_symmetry_space_group_name_H-M   'P 1'
_cell_length_a   5.84254800
_cell_length_b   6.00840700
_cell_length_c   11.90406400
_cell_angle_alpha   90.00000000
_cell_angle_beta   90.00000000
_cell_angle_gamma   90.00000000
_symmetry_Int_Tables_number   1
_chemical_formula_structural   Na2UO4
_chemical_formula_sum   'Na8 U4 O16'
_cell_volume   417.88509929
_cell_formula_units_Z   4
loop_
 _symmetry_equiv_pos_site_id
 _symmetry_equiv_pos_as_xyz
  1  'x, y, z'
loop_
 _atom_site_type_symbol
 _atom_site_label
 _atom_site_symmetry_multiplicity
 _atom_site_fract_x
 _atom_site_fract_y
 _atom_site_fract_z
 _atom_site_occupancy
  Na  Na0  1  0.00079800  0.05318900  0.33607800  1
  Na  Na1  1  0.50079800  0.44681100  0.66392200  1
  Na  Na2  1  0.99920200  0.55318900  0.16392200  1
  Na  Na3  1  0.49920200  0.94681100  0.83607800  1
  Na  Na4  1  0.50079800  0.05318900  0.16392200  1
  Na  Na5  1  0.00079800  0.44681100  0.83607800  1
  Na  Na6  1  0.49920200  0.55318900  0.33607800  1
  Na  Na7  1  0.99920200  0.94681100  0.66392200  1
  U  U8  1  0.00000000  0.00000000  0.00000000  1
  U  U9  1  0.50000000  0.50000000  0.00000000  1
  U  U10  1  0.00000000  0.50000000  0.50000000  1
  U  U11  1  0.50000000  0.00000000  0.50000000  1
  O  O12  1  0.60665600  0.96439500  0.34650000  1
  O  O13  1  0.10665600  0.53560500  0.65350000  1
  O  O14  1  0.39334400  0.46439500  0.15350000  1
  O  O15  1  0.89334400  0.03560500  0.84650000  1
  O  O16  1  0.39334400  0.03560500  0.65350000  1
  O  O17  1  0.89334400  0.46439500  0.34650000  1
  O  O18  1  0.60665600  0.53560500  0.84650000  1
  O  O19  1  0.10665600  0.96439500  0.15350000  1
  O  O20  1  0.79570800  0.20881000  0.54501800  1
  O  O21  1  0.29570800  0.29119000  0.45498200  1
  O  O22  1  0.20429200  0.70881000  0.95498200  1
  O  O23  1  0.70429200  0.79119000  0.04501800  1
  O  O24  1  0.29570800  0.20881000  0.95498200  1
  O  O25  1  0.79570800  0.29119000  0.04501800  1
  O  O26  1  0.70429200  0.70881000  0.54501800  1
  O  O27  1  0.20429200  0.79119000  0.45498200  1
