# generated using pymatgen
data_Na2CoP2O7
_symmetry_space_group_name_H-M   'P 1'
_cell_length_a   13.69978600
_cell_length_b   5.26115000
_cell_length_c   10.22237357
_cell_angle_alpha   60.54440952
_cell_angle_beta   90.00000000
_cell_angle_gamma   90.00000000
_symmetry_Int_Tables_number   1
_chemical_formula_structural   Na2CoP2O7
_chemical_formula_sum   'Na8 Co4 P8 O28'
_cell_volume   641.55407574
_cell_formula_units_Z   4
loop_
 _symmetry_equiv_pos_site_id
 _symmetry_equiv_pos_as_xyz
  1  'x, y, z'
loop_
 _atom_site_type_symbol
 _atom_site_label
 _atom_site_symmetry_multiplicity
 _atom_site_fract_x
 _atom_site_fract_y
 _atom_site_fract_z
 _atom_site_occupancy
  Na  Na0  1  0.29586900  0.59102900  0.14351400  1
  Na  Na1  1  0.20413100  0.59102900  0.64351400  1
  Na  Na2  1  0.70413100  0.40897100  0.85648600  1
  Na  Na3  1  0.79586900  0.40897100  0.35648600  1
  Na  Na4  1  0.60736900  0.07145400  0.63558800  1
  Na  Na5  1  0.89263100  0.07145400  0.13558800  1
  Na  Na6  1  0.39263100  0.92854600  0.36441200  1
  Na  Na7  1  0.10736900  0.92854600  0.86441200  1
  Co  Co8  1  0.33208600  0.96282500  0.73797200  1
  Co  Co9  1  0.16791400  0.96282500  0.23797200  1
  Co  Co10  1  0.66791400  0.03717500  0.26202800  1
  Co  Co11  1  0.83208600  0.03717500  0.76202800  1
  P  P12  1  0.04089200  0.46810400  0.23343200  1
  P  P13  1  0.45910800  0.46810400  0.73343200  1
  P  P14  1  0.95910800  0.53189600  0.76656800  1
  P  P15  1  0.54089200  0.53189600  0.26656800  1
  P  P16  1  0.18962600  0.28358600  0.45232700  1
  P  P17  1  0.31037400  0.28358600  0.95232700  1
  P  P18  1  0.81037400  0.71641400  0.54767300  1
  P  P19  1  0.68962600  0.71641400  0.04767300  1
  O  O20  1  0.22809900  0.58981100  0.41183100  1
  O  O21  1  0.27190100  0.58981100  0.91183100  1
  O  O22  1  0.77190100  0.41018900  0.58816900  1
  O  O23  1  0.72809900  0.41018900  0.08816900  1
  O  O24  1  0.23561400  0.15890600  0.35944500  1
  O  O25  1  0.26438600  0.15890600  0.85944500  1
  O  O26  1  0.76438600  0.84109400  0.64055500  1
  O  O27  1  0.73561400  0.84109400  0.14055500  1
  O  O28  1  0.05243300  0.22160700  0.19318500  1
  O  O29  1  0.44756700  0.22160700  0.69318500  1
  O  O30  1  0.94756700  0.77839300  0.80681500  1
  O  O31  1  0.55243300  0.77839300  0.30681500  1
  O  O32  1  0.11532900  0.71832800  0.14430000  1
  O  O33  1  0.38467100  0.71832800  0.64430000  1
  O  O34  1  0.88467100  0.28167200  0.85570000  1
  O  O35  1  0.61532900  0.28167200  0.35570000  1
  O  O36  1  0.93735100  0.56843900  0.22522600  1
  O  O37  1  0.56264900  0.56843900  0.72522600  1
  O  O38  1  0.06264900  0.43156100  0.77477400  1
  O  O39  1  0.43735100  0.43156100  0.27477400  1
  O  O40  1  0.19811400  0.07575300  0.62253800  1
  O  O41  1  0.30188600  0.07575300  0.12253800  1
  O  O42  1  0.80188600  0.92424700  0.37746200  1
  O  O43  1  0.69811400  0.92424700  0.87746200  1
  O  O44  1  0.07388800  0.32243500  0.41242000  1
  O  O45  1  0.42611200  0.32243500  0.91242000  1
  O  O46  1  0.92611200  0.67756500  0.58758000  1
  O  O47  1  0.57388800  0.67756500  0.08758000  1
