# generated using pymatgen
data_RbNb(PO4)2
_symmetry_space_group_name_H-M   'P 1'
_cell_length_a   12.21380100
_cell_length_b   5.28646000
_cell_length_c   13.26205922
_cell_angle_alpha   67.01699068
_cell_angle_beta   90.00000000
_cell_angle_gamma   90.00000000
_symmetry_Int_Tables_number   1
_chemical_formula_structural   RbNb(PO4)2
_chemical_formula_sum   'Rb4 Nb4 P8 O32'
_cell_volume   788.32895833
_cell_formula_units_Z   4
loop_
 _symmetry_equiv_pos_site_id
 _symmetry_equiv_pos_as_xyz
  1  'x, y, z'
loop_
 _atom_site_type_symbol
 _atom_site_label
 _atom_site_symmetry_multiplicity
 _atom_site_fract_x
 _atom_site_fract_y
 _atom_site_fract_z
 _atom_site_occupancy
  Rb  Rb0  1  0.37169100  0.29857600  0.95711500  1
  Rb  Rb1  1  0.87169100  0.70142400  0.54288500  1
  Rb  Rb2  1  0.62830900  0.70142400  0.04288500  1
  Rb  Rb3  1  0.12830900  0.29857600  0.45711500  1
  Nb  Nb4  1  0.11314900  0.08151100  0.17373500  1
  Nb  Nb5  1  0.61314900  0.91848900  0.32626500  1
  Nb  Nb6  1  0.88685100  0.91848900  0.82626500  1
  Nb  Nb7  1  0.38685100  0.08151100  0.67373500  1
  P  P8  1  0.43107000  0.38127400  0.37057200  1
  P  P9  1  0.93107000  0.61872600  0.12942800  1
  P  P10  1  0.56893000  0.61872600  0.62942800  1
  P  P11  1  0.06893000  0.38127400  0.87057200  1
  P  P12  1  0.30079900  0.59398500  0.16347800  1
  P  P13  1  0.80079900  0.40601500  0.33652200  1
  P  P14  1  0.69920100  0.40601500  0.83652200  1
  P  P15  1  0.19920100  0.59398500  0.66347800  1
  O  O16  1  0.28433900  0.40769900  0.63947900  1
  O  O17  1  0.78433900  0.59230100  0.86052100  1
  O  O18  1  0.71566100  0.59230100  0.36052100  1
  O  O19  1  0.21566100  0.40769900  0.13947900  1
  O  O20  1  0.37896100  0.96100600  0.81721400  1
  O  O21  1  0.87896100  0.03899400  0.68278600  1
  O  O22  1  0.62103900  0.03899400  0.18278600  1
  O  O23  1  0.12103900  0.96100600  0.31721400  1
  O  O24  1  0.40340300  0.63553700  0.09806200  1
  O  O25  1  0.90340300  0.36446300  0.40193800  1
  O  O26  1  0.59659700  0.36446300  0.90193800  1
  O  O27  1  0.09659700  0.63553700  0.59806200  1
  O  O28  1  0.51830500  0.33545800  0.65252000  1
  O  O29  1  0.01830500  0.66454200  0.84748000  1
  O  O30  1  0.48169500  0.66454200  0.34748000  1
  O  O31  1  0.98169500  0.33545800  0.15252000  1
  O  O32  1  0.11074800  0.23361600  0.98502500  1
  O  O33  1  0.61074800  0.76638400  0.51497500  1
  O  O34  1  0.88925200  0.76638400  0.01497500  1
  O  O35  1  0.38925200  0.23361600  0.48502500  1
  O  O36  1  0.49003400  0.78478800  0.67034400  1
  O  O37  1  0.99003400  0.21521200  0.82965600  1
  O  O38  1  0.50996600  0.21521200  0.32965600  1
  O  O39  1  0.00996600  0.78478800  0.17034400  1
  O  O40  1  0.25627900  0.86457100  0.65185800  1
  O  O41  1  0.75627900  0.13542900  0.84814200  1
  O  O42  1  0.74372100  0.13542900  0.34814200  1
  O  O43  1  0.24372100  0.86457100  0.15185800  1
  O  O44  1  0.32246600  0.43537100  0.29487100  1
  O  O45  1  0.82246600  0.56462900  0.20512900  1
  O  O46  1  0.67753400  0.56462900  0.70512900  1
  O  O47  1  0.17753400  0.43537100  0.79487100  1
