# generated using pymatgen
data_Cu3SbS3
_symmetry_space_group_name_H-M   'P 1'
_cell_length_a   6.54146300
_cell_length_b   8.09905900
_cell_length_c   10.26864400
_cell_angle_alpha   90.00000000
_cell_angle_beta   90.00000000
_cell_angle_gamma   90.00000000
_symmetry_Int_Tables_number   1
_chemical_formula_structural   Cu3SbS3
_chemical_formula_sum   'Cu12 Sb4 S12'
_cell_volume   544.02962496
_cell_formula_units_Z   4
loop_
 _symmetry_equiv_pos_site_id
 _symmetry_equiv_pos_as_xyz
  1  'x, y, z'
loop_
 _atom_site_type_symbol
 _atom_site_label
 _atom_site_symmetry_multiplicity
 _atom_site_fract_x
 _atom_site_fract_y
 _atom_site_fract_z
 _atom_site_occupancy
  Cu  Cu0  1  0.98758700  0.07619500  0.46664200  1
  Cu  Cu1  1  0.48758700  0.42380500  0.53335800  1
  Cu  Cu2  1  0.51241300  0.92380500  0.96664200  1
  Cu  Cu3  1  0.01241300  0.57619500  0.03335800  1
  Cu  Cu4  1  0.12995500  0.36779600  0.41227700  1
  Cu  Cu5  1  0.62995500  0.13220400  0.58772300  1
  Cu  Cu6  1  0.87004500  0.86779600  0.08772300  1
  Cu  Cu7  1  0.37004500  0.63220400  0.91227700  1
  Cu  Cu8  1  0.05453100  0.16910900  0.09444100  1
  Cu  Cu9  1  0.55453100  0.33089100  0.90555900  1
  Cu  Cu10  1  0.94546900  0.66910900  0.40555900  1
  Cu  Cu11  1  0.44546900  0.83089100  0.59444100  1
  Sb  Sb12  1  0.88628900  0.72529100  0.73602100  1
  Sb  Sb13  1  0.38628900  0.77470900  0.26397900  1
  Sb  Sb14  1  0.11371100  0.22529100  0.76397900  1
  Sb  Sb15  1  0.61371100  0.27470900  0.23602100  1
  S  S16  1  0.60208700  0.68195200  0.07377300  1
  S  S17  1  0.10208700  0.81804800  0.92622700  1
  S  S18  1  0.89791300  0.31804800  0.57377300  1
  S  S19  1  0.39791300  0.18195200  0.42622700  1
  S  S20  1  0.87483300  0.04972700  0.25481800  1
  S  S21  1  0.37483300  0.45027300  0.74518200  1
  S  S22  1  0.12516700  0.54972700  0.24518200  1
  S  S23  1  0.62516700  0.95027300  0.75481800  1
  S  S24  1  0.39772100  0.16169800  0.05452800  1
  S  S25  1  0.89772100  0.33830200  0.94547200  1
  S  S26  1  0.60227900  0.66169800  0.44547200  1
  S  S27  1  0.10227900  0.83830200  0.55452800  1
