# generated using pymatgen
data_Tm2SiO5
_symmetry_space_group_name_H-M   'P 1'
_cell_length_a   6.69300700
_cell_length_b   6.70129700
_cell_length_c   9.15750777
_cell_angle_alpha   78.48889270
_cell_angle_beta   90.00000000
_cell_angle_gamma   90.00000000
_symmetry_Int_Tables_number   1
_chemical_formula_structural   Tm2SiO5
_chemical_formula_sum   'Tm8 Si4 O20'
_cell_volume   402.46953370
_cell_formula_units_Z   4
loop_
 _symmetry_equiv_pos_site_id
 _symmetry_equiv_pos_as_xyz
  1  'x, y, z'
loop_
 _atom_site_type_symbol
 _atom_site_label
 _atom_site_symmetry_multiplicity
 _atom_site_fract_x
 _atom_site_fract_y
 _atom_site_fract_z
 _atom_site_occupancy
  Tm  Tm0  1  0.11827000  0.27159700  0.53393100  1
  Tm  Tm1  1  0.61827000  0.22840300  0.46606900  1
  Tm  Tm2  1  0.88173000  0.72840300  0.46606900  1
  Tm  Tm3  1  0.38173000  0.77159700  0.53393100  1
  Tm  Tm4  1  0.64154700  0.00536200  0.14581200  1
  Tm  Tm5  1  0.14154700  0.49463800  0.85418800  1
  Tm  Tm6  1  0.35845300  0.99463800  0.85418800  1
  Tm  Tm7  1  0.85845300  0.50536200  0.14581200  1
  Si  Si8  1  0.09655600  0.99732200  0.20257700  1
  Si  Si9  1  0.59655600  0.50267800  0.79742300  1
  Si  Si10  1  0.90344400  0.00267800  0.79742300  1
  Si  Si11  1  0.40344400  0.49732200  0.20257700  1
  O  O12  1  0.87781600  0.42592100  0.39275100  1
  O  O13  1  0.37781600  0.07407900  0.60724900  1
  O  O14  1  0.12218400  0.57407900  0.60724900  1
  O  O15  1  0.62218400  0.92592100  0.39275100  1
  O  O16  1  0.29545900  0.00236300  0.10007700  1
  O  O17  1  0.79545900  0.49763700  0.89992300  1
  O  O18  1  0.70454100  0.99763700  0.89992300  1
  O  O19  1  0.20454100  0.50236300  0.10007700  1
  O  O20  1  0.14583300  0.96944900  0.38503800  1
  O  O21  1  0.64583300  0.53055100  0.61496200  1
  O  O22  1  0.85416700  0.03055100  0.61496200  1
  O  O23  1  0.35416700  0.46944900  0.38503800  1
  O  O24  1  0.56195900  0.30143000  0.21049800  1
  O  O25  1  0.06195900  0.19857000  0.78950200  1
  O  O26  1  0.43804100  0.69857000  0.78950200  1
  O  O27  1  0.93804100  0.80143000  0.21049800  1
  O  O28  1  0.56345200  0.68188600  0.14762200  1
  O  O29  1  0.06345200  0.81811400  0.85237800  1
  O  O30  1  0.43654800  0.31811400  0.85237800  1
  O  O31  1  0.93654800  0.18188600  0.14762200  1
