# generated using pymatgen
data_NO2
_symmetry_space_group_name_H-M   'P 1'
_cell_length_a   4.95106800
_cell_length_b   6.19645800
_cell_length_c   6.84453695
_cell_angle_alpha   61.76903215
_cell_angle_beta   90.00000000
_cell_angle_gamma   90.00000000
_symmetry_Int_Tables_number   1
_chemical_formula_structural   NO2
_chemical_formula_sum   'N4 O8'
_cell_volume   185.00607992
_cell_formula_units_Z   4
loop_
 _symmetry_equiv_pos_site_id
 _symmetry_equiv_pos_as_xyz
  1  'x, y, z'
loop_
 _atom_site_type_symbol
 _atom_site_label
 _atom_site_symmetry_multiplicity
 _atom_site_fract_x
 _atom_site_fract_y
 _atom_site_fract_z
 _atom_site_occupancy
  N  N0  1  0.00344600  0.15908700  0.97861300  1
  N  N1  1  0.50344600  0.84091300  0.52138700  1
  N  N2  1  0.99655400  0.84091300  0.02138700  1
  N  N3  1  0.49655400  0.15908700  0.47861300  1
  O  O4  1  0.18644500  0.27768100  0.86110800  1
  O  O5  1  0.68644500  0.72231900  0.63889200  1
  O  O6  1  0.81355500  0.72231900  0.13889200  1
  O  O7  1  0.31355500  0.27768100  0.36110800  1
  O  O8  1  0.82337200  0.20089500  0.07430300  1
  O  O9  1  0.32337200  0.79910500  0.42569700  1
  O  O10  1  0.17662800  0.79910500  0.92569700  1
  O  O11  1  0.67662800  0.20089500  0.57430300  1
