# generated using pymatgen
data_YSO4F
_symmetry_space_group_name_H-M   'P 1'
_cell_length_a   6.45182900
_cell_length_b   7.00275600
_cell_length_c   8.41211000
_cell_angle_alpha   90.00000000
_cell_angle_beta   90.00000000
_cell_angle_gamma   90.00000000
_symmetry_Int_Tables_number   1
_chemical_formula_structural   YSO4F
_chemical_formula_sum   'Y4 S4 O16 F4'
_cell_volume   380.06404450
_cell_formula_units_Z   4
loop_
 _symmetry_equiv_pos_site_id
 _symmetry_equiv_pos_as_xyz
  1  'x, y, z'
loop_
 _atom_site_type_symbol
 _atom_site_label
 _atom_site_symmetry_multiplicity
 _atom_site_fract_x
 _atom_site_fract_y
 _atom_site_fract_z
 _atom_site_occupancy
  Y  Y0  1  0.65207900  0.75000000  0.44567600  1
  Y  Y1  1  0.15207900  0.25000000  0.05432400  1
  Y  Y2  1  0.34792100  0.25000000  0.55432400  1
  Y  Y3  1  0.84792100  0.75000000  0.94567600  1
  S  S4  1  0.18584800  0.75000000  0.59268700  1
  S  S5  1  0.68584800  0.25000000  0.90731300  1
  S  S6  1  0.81415200  0.25000000  0.40731300  1
  S  S7  1  0.31415200  0.75000000  0.09268700  1
  O  O8  1  0.01235600  0.75000000  0.48023300  1
  O  O9  1  0.51235600  0.25000000  0.01976700  1
  O  O10  1  0.98764400  0.25000000  0.51976700  1
  O  O11  1  0.48764400  0.75000000  0.98023300  1
  O  O12  1  0.38208400  0.75000000  0.25838400  1
  O  O13  1  0.88208400  0.25000000  0.24161600  1
  O  O14  1  0.61791600  0.25000000  0.74161600  1
  O  O15  1  0.11791600  0.75000000  0.75838400  1
  O  O16  1  0.32631600  0.91806000  0.56126100  1
  O  O17  1  0.82631600  0.08194000  0.93873900  1
  O  O18  1  0.67368400  0.41806000  0.43873900  1
  O  O19  1  0.17368400  0.58194000  0.06126100  1
  O  O20  1  0.82631600  0.41806000  0.93873900  1
  O  O21  1  0.32631600  0.58194000  0.56126100  1
  O  O22  1  0.17368400  0.91806000  0.06126100  1
  O  O23  1  0.67368400  0.08194000  0.43873900  1
  F  F24  1  0.70166500  0.75000000  0.70559400  1
  F  F25  1  0.20166500  0.25000000  0.79440600  1
  F  F26  1  0.29833500  0.25000000  0.29440600  1
  F  F27  1  0.79833500  0.75000000  0.20559400  1
