# generated using pymatgen
data_Sm2SiTeO4
_symmetry_space_group_name_H-M   'P 1'
_cell_length_a   6.39481200
_cell_length_b   8.70398000
_cell_length_c   9.89361198
_cell_angle_alpha   84.50727059
_cell_angle_beta   90.00000000
_cell_angle_gamma   90.00000000
_symmetry_Int_Tables_number   1
_chemical_formula_structural   Sm2SiTeO4
_chemical_formula_sum   'Sm8 Si4 Te4 O16'
_cell_volume   548.15303102
_cell_formula_units_Z   4
loop_
 _symmetry_equiv_pos_site_id
 _symmetry_equiv_pos_as_xyz
  1  'x, y, z'
loop_
 _atom_site_type_symbol
 _atom_site_label
 _atom_site_symmetry_multiplicity
 _atom_site_fract_x
 _atom_site_fract_y
 _atom_site_fract_z
 _atom_site_occupancy
  Sm  Sm0  1  0.30390200  0.83619000  0.65483600  1
  Sm  Sm1  1  0.19609800  0.33619000  0.65483600  1
  Sm  Sm2  1  0.69609800  0.16381000  0.34516400  1
  Sm  Sm3  1  0.80390200  0.66381000  0.34516400  1
  Sm  Sm4  1  0.15386300  0.30456700  0.10803100  1
  Sm  Sm5  1  0.65386300  0.19543300  0.89196900  1
  Sm  Sm6  1  0.84613700  0.69543300  0.89196900  1
  Sm  Sm7  1  0.34613700  0.80456700  0.10803100  1
  Si  Si8  1  0.80898500  0.94385900  0.12490800  1
  Si  Si9  1  0.19101500  0.05614100  0.87509200  1
  Si  Si10  1  0.30898500  0.55614100  0.87509200  1
  Si  Si11  1  0.69101500  0.44385900  0.12490800  1
  Te  Te12  1  0.71390800  0.37977200  0.58868300  1
  Te  Te13  1  0.21390800  0.12022800  0.41131700  1
  Te  Te14  1  0.28609200  0.62022800  0.41131700  1
  Te  Te15  1  0.78609200  0.87977200  0.58868300  1
  O  O16  1  0.86593200  0.40896400  0.24746100  1
  O  O17  1  0.36593200  0.09103600  0.75253900  1
  O  O18  1  0.13406800  0.59103600  0.75253900  1
  O  O19  1  0.63406800  0.90896400  0.24746100  1
  O  O20  1  0.50695800  0.31719000  0.16047000  1
  O  O21  1  0.00695800  0.18281000  0.83953000  1
  O  O22  1  0.49304200  0.68281000  0.83953000  1
  O  O23  1  0.99304200  0.81719000  0.16047000  1
  O  O24  1  0.86579000  0.12718400  0.12485100  1
  O  O25  1  0.19616000  0.57683800  0.02200800  1
  O  O26  1  0.13421000  0.87281600  0.87514900  1
  O  O27  1  0.63421000  0.62718400  0.12485100  1
  O  O28  1  0.30384000  0.07683800  0.02200800  1
  O  O29  1  0.80384000  0.42316200  0.97799200  1
  O  O30  1  0.69616000  0.92316200  0.97799200  1
  O  O31  1  0.36579000  0.37281600  0.87514900  1
