# generated using pymatgen
data_Sr2SiO4
_symmetry_space_group_name_H-M   'P 1'
_cell_length_a   5.68272600
_cell_length_b   7.14205500
_cell_length_c   9.94380600
_cell_angle_alpha   90.00000000
_cell_angle_beta   90.00000000
_cell_angle_gamma   90.00000000
_symmetry_Int_Tables_number   1
_chemical_formula_structural   Sr2SiO4
_chemical_formula_sum   'Sr8 Si4 O16'
_cell_volume   403.58270754
_cell_formula_units_Z   4
loop_
 _symmetry_equiv_pos_site_id
 _symmetry_equiv_pos_as_xyz
  1  'x, y, z'
loop_
 _atom_site_type_symbol
 _atom_site_label
 _atom_site_symmetry_multiplicity
 _atom_site_fract_x
 _atom_site_fract_y
 _atom_site_fract_z
 _atom_site_occupancy
  Sr  Sr0  1  0.25000000  0.99967800  0.69716200  1
  Sr  Sr1  1  0.75000000  0.00032200  0.30283800  1
  Sr  Sr2  1  0.25000000  0.49967800  0.80283800  1
  Sr  Sr3  1  0.75000000  0.50032200  0.19716200  1
  Sr  Sr4  1  0.25000000  0.65732300  0.42887700  1
  Sr  Sr5  1  0.75000000  0.34267700  0.57112300  1
  Sr  Sr6  1  0.25000000  0.15732300  0.07112300  1
  Sr  Sr7  1  0.75000000  0.84267700  0.92887700  1
  Si  Si8  1  0.25000000  0.22018300  0.41948100  1
  Si  Si9  1  0.75000000  0.77981700  0.58051900  1
  Si  Si10  1  0.25000000  0.72018300  0.08051900  1
  Si  Si11  1  0.75000000  0.27981700  0.91948100  1
  O  O12  1  0.98777800  0.70215800  0.65689800  1
  O  O13  1  0.48777800  0.29784200  0.34310200  1
  O  O14  1  0.51222200  0.20215800  0.84310200  1
  O  O15  1  0.01222200  0.79784200  0.15689800  1
  O  O16  1  0.01222200  0.29784200  0.34310200  1
  O  O17  1  0.51222200  0.70215800  0.65689800  1
  O  O18  1  0.48777800  0.79784200  0.15689800  1
  O  O19  1  0.98777800  0.20215800  0.84310200  1
  O  O20  1  0.25000000  0.31901700  0.57151600  1
  O  O21  1  0.75000000  0.68098300  0.42848400  1
  O  O22  1  0.25000000  0.81901700  0.92848400  1
  O  O23  1  0.75000000  0.18098300  0.07151600  1
  O  O24  1  0.75000000  0.50804500  0.92930000  1
  O  O25  1  0.25000000  0.49195500  0.07070000  1
  O  O26  1  0.75000000  0.00804500  0.57070000  1
  O  O27  1  0.25000000  0.99195500  0.42930000  1
