# generated using pymatgen
data_YGaO3
_symmetry_space_group_name_H-M   'P 1'
_cell_length_a   6.13362246
_cell_length_b   6.13362246
_cell_length_c   11.73154400
_cell_angle_alpha   90.00000000
_cell_angle_beta   90.00000000
_cell_angle_gamma   120.00000496
_symmetry_Int_Tables_number   1
_chemical_formula_structural   YGaO3
_chemical_formula_sum   'Y6 Ga6 O18'
_cell_volume   382.22568253
_cell_formula_units_Z   6
loop_
 _symmetry_equiv_pos_site_id
 _symmetry_equiv_pos_as_xyz
  1  'x, y, z'
loop_
 _atom_site_type_symbol
 _atom_site_label
 _atom_site_symmetry_multiplicity
 _atom_site_fract_x
 _atom_site_fract_y
 _atom_site_fract_z
 _atom_site_occupancy
  Y  Y0  1  0.66666700  0.33333300  0.23001500  1
  Y  Y1  1  0.33333300  0.66666700  0.73001500  1
  Y  Y2  1  0.66666700  0.33333300  0.73001500  1
  Y  Y3  1  0.33333300  0.66666700  0.23001500  1
  Y  Y4  1  0.00000000  0.00000000  0.77087400  1
  Y  Y5  1  0.00000000  0.00000000  0.27087400  1
  Ga  Ga6  1  0.66571600  0.00000000  0.49674100  1
  Ga  Ga7  1  0.66571600  0.66571600  0.99674100  1
  Ga  Ga8  1  0.00000000  0.33428400  0.99674100  1
  Ga  Ga9  1  0.00000000  0.66571600  0.49674100  1
  Ga  Ga10  1  0.33428400  0.33428400  0.49674100  1
  Ga  Ga11  1  0.33428400  0.00000000  0.99674100  1
  O  O12  1  0.66666700  0.33333300  0.01583600  1
  O  O13  1  0.33333300  0.66666700  0.51583600  1
  O  O14  1  0.66666700  0.33333300  0.51583600  1
  O  O15  1  0.33333300  0.66666700  0.01583600  1
  O  O16  1  0.00000000  0.00000000  0.97440600  1
  O  O17  1  0.00000000  0.00000000  0.47440600  1
  O  O18  1  0.35884800  0.00000000  0.83535700  1
  O  O19  1  0.35884800  0.35884800  0.33535700  1
  O  O20  1  0.00000000  0.64115200  0.33535700  1
  O  O21  1  0.00000000  0.35884800  0.83535700  1
  O  O22  1  0.64115200  0.64115200  0.83535700  1
  O  O23  1  0.64115200  0.00000000  0.33535700  1
  O  O24  1  0.30737900  0.00000000  0.15924200  1
  O  O25  1  0.30737900  0.30737900  0.65924200  1
  O  O26  1  0.00000000  0.69262100  0.65924200  1
  O  O27  1  0.00000000  0.30737900  0.15924200  1
  O  O28  1  0.69262100  0.69262100  0.15924200  1
  O  O29  1  0.69262100  0.00000000  0.65924200  1
