# generated using pymatgen
data_NaAsO3
_symmetry_space_group_name_H-M   'P 1'
_cell_length_a   7.45716700
_cell_length_b   7.61516615
_cell_length_c   8.26117918
_cell_angle_alpha   103.78719870
_cell_angle_beta   92.63786065
_cell_angle_gamma   90.32185926
_symmetry_Int_Tables_number   1
_chemical_formula_structural   NaAsO3
_chemical_formula_sum   'Na6 As6 O18'
_cell_volume   455.06611088
_cell_formula_units_Z   6
loop_
 _symmetry_equiv_pos_site_id
 _symmetry_equiv_pos_as_xyz
  1  'x, y, z'
loop_
 _atom_site_type_symbol
 _atom_site_label
 _atom_site_symmetry_multiplicity
 _atom_site_fract_x
 _atom_site_fract_y
 _atom_site_fract_z
 _atom_site_occupancy
  Na  Na0  1  0.75585700  0.57524200  0.79681400  1
  Na  Na1  1  0.24414300  0.42475800  0.20318600  1
  Na  Na2  1  0.74711700  0.05775100  0.77835300  1
  Na  Na3  1  0.25288300  0.94224900  0.22164700  1
  Na  Na4  1  0.98236500  0.25363400  0.51158500  1
  Na  Na5  1  0.01763500  0.74636600  0.48841500  1
  As  As6  1  0.55091800  0.72102000  0.38631400  1
  As  As7  1  0.44908200  0.27898000  0.61368600  1
  As  As8  1  0.77784400  0.95297500  0.17131200  1
  As  As9  1  0.22215600  0.04702500  0.82868800  1
  As  As10  1  0.77324000  0.37824100  0.17386900  1
  As  As11  1  0.22676000  0.62175900  0.82613100  1
  O  O12  1  0.67935900  0.17128500  0.20297700  1
  O  O13  1  0.29797100  0.23263300  0.45300300  1
  O  O14  1  0.32850200  0.72957100  0.40390200  1
  O  O15  1  0.67149800  0.27042900  0.59609800  1
  O  O16  1  0.58049900  0.85818700  0.23813700  1
  O  O17  1  0.41950100  0.14181300  0.76186300  1
  O  O18  1  0.04953300  0.55465700  0.69215000  1
  O  O19  1  0.95046700  0.44534300  0.30785000  1
  O  O20  1  0.04728000  0.04356600  0.69283900  1
  O  O21  1  0.95272000  0.95643400  0.30716100  1
  O  O22  1  0.21594500  0.63378400  0.02923900  1
  O  O23  1  0.57488600  0.49916700  0.25225400  1
  O  O24  1  0.20560500  0.13328600  0.03308400  1
  O  O25  1  0.79439500  0.86671400  0.96691600  1
  O  O26  1  0.32064100  0.82871500  0.79702300  1
  O  O27  1  0.78405500  0.36621600  0.97076100  1
  O  O28  1  0.42511400  0.50083300  0.74774600  1
  O  O29  1  0.70202900  0.76736700  0.54699700  1
