# generated using pymatgen
data_KNa2(PO3)3
_symmetry_space_group_name_H-M   'P 1'
_cell_length_a   6.85251200
_cell_length_b   7.05979154
_cell_length_c   9.60117674
_cell_angle_alpha   87.07978587
_cell_angle_beta   109.37566431
_cell_angle_gamma   104.55547062
_symmetry_Int_Tables_number   1
_chemical_formula_structural   KNa2(PO3)3
_chemical_formula_sum   'K2 Na4 P6 O18'
_cell_volume   423.84181265
_cell_formula_units_Z   2
loop_
 _symmetry_equiv_pos_site_id
 _symmetry_equiv_pos_as_xyz
  1  'x, y, z'
loop_
 _atom_site_type_symbol
 _atom_site_label
 _atom_site_symmetry_multiplicity
 _atom_site_fract_x
 _atom_site_fract_y
 _atom_site_fract_z
 _atom_site_occupancy
  K  K0  1  0.85079500  0.96132300  0.16691300  1
  K  K1  1  0.14920500  0.03867700  0.83308700  1
  Na  Na2  1  0.28321000  0.28912300  0.50975400  1
  Na  Na3  1  0.76770400  0.42050800  0.83109300  1
  Na  Na4  1  0.23229600  0.57949200  0.16890700  1
  Na  Na5  1  0.71679000  0.71087700  0.49024600  1
  P  P6  1  0.28993100  0.54410500  0.80391100  1
  P  P7  1  0.75874600  0.24469200  0.47330800  1
  P  P8  1  0.62261900  0.88123400  0.78284700  1
  P  P9  1  0.37738100  0.11876600  0.21715300  1
  P  P10  1  0.71006900  0.45589500  0.19608900  1
  P  P11  1  0.24125400  0.75530800  0.52669200  1
  O  O12  1  0.38785300  0.39267100  0.76856900  1
  O  O13  1  0.61214700  0.60732900  0.23143100  1
  O  O14  1  0.47555200  0.74506600  0.87305100  1
  O  O15  1  0.52444800  0.25493400  0.12694900  1
  O  O16  1  0.15114200  0.62692800  0.64996500  1
  O  O17  1  0.84885800  0.37307200  0.35003500  1
  O  O18  1  0.43439500  0.92642200  0.63703200  1
  O  O19  1  0.56560500  0.07357800  0.36296800  1
  O  O20  1  0.15319500  0.49645700  0.90025900  1
  O  O21  1  0.84680500  0.50354300  0.09974100  1
  O  O22  1  0.75073700  0.76397600  0.74072300  1
  O  O23  1  0.24926300  0.23602400  0.25927700  1
  O  O24  1  0.66577400  0.36398200  0.54727400  1
  O  O25  1  0.33422600  0.63601800  0.45272600  1
  O  O26  1  0.92964000  0.14875900  0.56030100  1
  O  O27  1  0.07036000  0.85124100  0.43969900  1
  O  O28  1  0.26481500  0.93163400  0.12808500  1
  O  O29  1  0.73518500  0.06836600  0.87191500  1
