# generated using pymatgen
data_PrF3
_symmetry_space_group_name_H-M   'P 1'
_cell_length_a   7.15736259
_cell_length_b   7.15736259
_cell_length_c   7.14054200
_cell_angle_alpha   90.00000000
_cell_angle_beta   90.00000000
_cell_angle_gamma   120.00000547
_symmetry_Int_Tables_number   1
_chemical_formula_structural   PrF3
_chemical_formula_sum   'Pr6 F18'
_cell_volume   316.78734494
_cell_formula_units_Z   6
loop_
 _symmetry_equiv_pos_site_id
 _symmetry_equiv_pos_as_xyz
  1  'x, y, z'
loop_
 _atom_site_type_symbol
 _atom_site_label
 _atom_site_symmetry_multiplicity
 _atom_site_fract_x
 _atom_site_fract_y
 _atom_site_fract_z
 _atom_site_occupancy
  Pr  Pr0  1  0.67032800  0.67032800  0.25000000  1
  Pr  Pr1  1  0.00000000  0.67032800  0.75000000  1
  Pr  Pr2  1  0.67032800  0.00000000  0.75000000  1
  Pr  Pr3  1  0.32967200  0.00000000  0.25000000  1
  Pr  Pr4  1  0.00000000  0.32967200  0.25000000  1
  Pr  Pr5  1  0.32967200  0.32967200  0.75000000  1
  F  F6  1  0.00000000  0.00000000  0.50000000  1
  F  F7  1  0.00000000  0.00000000  0.00000000  1
  F  F8  1  0.33333300  0.66666700  0.25000000  1
  F  F9  1  0.66666700  0.33333300  0.75000000  1
  F  F10  1  0.66666700  0.33333300  0.25000000  1
  F  F11  1  0.33333300  0.66666700  0.75000000  1
  F  F12  1  0.34390700  0.00000000  0.91581300  1
  F  F13  1  0.34390700  0.34390700  0.41581300  1
  F  F14  1  0.00000000  0.65609300  0.41581300  1
  F  F15  1  0.00000000  0.34390700  0.91581300  1
  F  F16  1  0.65609300  0.65609300  0.91581300  1
  F  F17  1  0.34390700  0.00000000  0.58418700  1
  F  F18  1  0.65609300  0.65609300  0.58418700  1
  F  F19  1  0.65609300  0.00000000  0.41581300  1
  F  F20  1  0.00000000  0.34390700  0.58418700  1
  F  F21  1  0.00000000  0.65609300  0.08418700  1
  F  F22  1  0.65609300  0.00000000  0.08418700  1
  F  F23  1  0.34390700  0.34390700  0.08418700  1
