# generated using pymatgen
data_Ca2UO5
_symmetry_space_group_name_H-M   'P 1'
_cell_length_a   5.50585800
_cell_length_b   7.97661300
_cell_length_c   11.49088590
_cell_angle_alpha   71.81173016
_cell_angle_beta   90.00000000
_cell_angle_gamma   90.00000000
_symmetry_Int_Tables_number   1
_chemical_formula_structural   Ca2UO5
_chemical_formula_sum   'Ca8 U4 O20'
_cell_volume   479.44312138
_cell_formula_units_Z   4
loop_
 _symmetry_equiv_pos_site_id
 _symmetry_equiv_pos_as_xyz
  1  'x, y, z'
loop_
 _atom_site_type_symbol
 _atom_site_label
 _atom_site_symmetry_multiplicity
 _atom_site_fract_x
 _atom_site_fract_y
 _atom_site_fract_z
 _atom_site_occupancy
  Ca  Ca0  1  0.94459900  0.15222500  0.68134500  1
  Ca  Ca1  1  0.44459900  0.84777500  0.81865500  1
  Ca  Ca2  1  0.05540100  0.84777500  0.31865500  1
  Ca  Ca3  1  0.55540100  0.15222500  0.18134500  1
  Ca  Ca4  1  0.49363200  0.34971900  0.86142700  1
  Ca  Ca5  1  0.99363200  0.65028100  0.63857300  1
  Ca  Ca6  1  0.50636800  0.65028100  0.13857300  1
  Ca  Ca7  1  0.00636800  0.34971900  0.36142700  1
  U  U8  1  0.00000000  0.00000000  0.00000000  1
  U  U9  1  0.50000000  0.00000000  0.50000000  1
  U  U10  1  0.00000000  0.50000000  0.00000000  1
  U  U11  1  0.50000000  0.50000000  0.50000000  1
  O  O12  1  0.68163000  0.25016600  0.50324800  1
  O  O13  1  0.18163000  0.74983400  0.99675200  1
  O  O14  1  0.31837000  0.74983400  0.49675200  1
  O  O15  1  0.81837000  0.25016600  0.00324800  1
  O  O16  1  0.75070500  0.01657600  0.36630200  1
  O  O17  1  0.25070500  0.98342400  0.13369800  1
  O  O18  1  0.24929500  0.98342400  0.63369800  1
  O  O19  1  0.74929500  0.01657600  0.86630200  1
  O  O20  1  0.80780900  0.61591500  0.42794600  1
  O  O21  1  0.30780900  0.38408500  0.07205400  1
  O  O22  1  0.19219100  0.38408500  0.57205400  1
  O  O23  1  0.69219100  0.61591500  0.92794600  1
  O  O24  1  0.66825900  0.44970500  0.67222100  1
  O  O25  1  0.16825900  0.55029500  0.82777900  1
  O  O26  1  0.33174100  0.55029500  0.32777900  1
  O  O27  1  0.83174100  0.44970500  0.17222100  1
  O  O28  1  0.72212800  0.87812500  0.64173400  1
  O  O29  1  0.22212800  0.12187500  0.85826600  1
  O  O30  1  0.27787200  0.12187500  0.35826600  1
  O  O31  1  0.77787200  0.87812500  0.14173400  1
