# generated using pymatgen
data_Nd2SiTeO4
_symmetry_space_group_name_H-M   'P 1'
_cell_length_a   6.47398100
_cell_length_b   8.79548200
_cell_length_c   9.97697160
_cell_angle_alpha   84.70547172
_cell_angle_beta   90.00000000
_cell_angle_gamma   90.00000000
_symmetry_Int_Tables_number   1
_chemical_formula_structural   Nd2SiTeO4
_chemical_formula_sum   'Nd8 Si4 Te4 O16'
_cell_volume   565.68273726
_cell_formula_units_Z   4
loop_
 _symmetry_equiv_pos_site_id
 _symmetry_equiv_pos_as_xyz
  1  'x, y, z'
loop_
 _atom_site_type_symbol
 _atom_site_label
 _atom_site_symmetry_multiplicity
 _atom_site_fract_x
 _atom_site_fract_y
 _atom_site_fract_z
 _atom_site_occupancy
  Nd  Nd0  1  0.30403600  0.83676100  0.65370200  1
  Nd  Nd1  1  0.19596400  0.33676100  0.65370200  1
  Nd  Nd2  1  0.69596400  0.16323900  0.34629800  1
  Nd  Nd3  1  0.80403600  0.66323900  0.34629800  1
  Nd  Nd4  1  0.15270600  0.30485300  0.10575400  1
  Nd  Nd5  1  0.65270600  0.19514700  0.89424600  1
  Nd  Nd6  1  0.84729400  0.69514700  0.89424600  1
  Nd  Nd7  1  0.34729400  0.80485300  0.10575400  1
  Si  Si8  1  0.80928500  0.94281300  0.12544600  1
  Si  Si9  1  0.19071500  0.05718700  0.87455400  1
  Si  Si10  1  0.30928500  0.55718700  0.87455400  1
  Si  Si11  1  0.69071500  0.44281300  0.12544600  1
  Te  Te12  1  0.71349000  0.38065400  0.59091800  1
  Te  Te13  1  0.21349000  0.11934600  0.40908200  1
  Te  Te14  1  0.28651000  0.61934600  0.40908200  1
  Te  Te15  1  0.78651000  0.88065400  0.59091800  1
  O  O16  1  0.86184900  0.40810200  0.24799000  1
  O  O17  1  0.36184900  0.09189800  0.75201000  1
  O  O18  1  0.13815100  0.59189800  0.75201000  1
  O  O19  1  0.63815100  0.90810200  0.24799000  1
  O  O20  1  0.50941800  0.31610400  0.15687900  1
  O  O21  1  0.00941800  0.18389600  0.84312100  1
  O  O22  1  0.49058200  0.68389600  0.84312100  1
  O  O23  1  0.99058200  0.81610400  0.15687900  1
  O  O24  1  0.86661400  0.12403700  0.12554900  1
  O  O25  1  0.19428400  0.57769400  0.01929600  1
  O  O26  1  0.13338600  0.87596300  0.87445100  1
  O  O27  1  0.63338600  0.62403700  0.12554900  1
  O  O28  1  0.30571600  0.07769400  0.01929600  1
  O  O29  1  0.80571600  0.42230600  0.98070400  1
  O  O30  1  0.69428400  0.92230600  0.98070400  1
  O  O31  1  0.36661400  0.37596300  0.87445100  1
