# generated using pymatgen
data_Cs3GeF7
_symmetry_space_group_name_H-M   'P 1'
_cell_length_a   8.58169700
_cell_length_b   8.58169700
_cell_length_c   6.33167800
_cell_angle_alpha   90.00000000
_cell_angle_beta   90.00000000
_cell_angle_gamma   90.00000000
_symmetry_Int_Tables_number   1
_chemical_formula_structural   Cs3GeF7
_chemical_formula_sum   'Cs6 Ge2 F14'
_cell_volume   466.29974031
_cell_formula_units_Z   2
loop_
 _symmetry_equiv_pos_site_id
 _symmetry_equiv_pos_as_xyz
  1  'x, y, z'
loop_
 _atom_site_type_symbol
 _atom_site_label
 _atom_site_symmetry_multiplicity
 _atom_site_fract_x
 _atom_site_fract_y
 _atom_site_fract_z
 _atom_site_occupancy
  Cs  Cs0  1  0.19495900  0.69495900  0.50000000  1
  Cs  Cs1  1  0.69495900  0.80504100  0.50000000  1
  Cs  Cs2  1  0.30504100  0.19495900  0.50000000  1
  Cs  Cs3  1  0.80504100  0.30504100  0.50000000  1
  Cs  Cs4  1  0.50000000  0.50000000  0.00000000  1
  Cs  Cs5  1  0.00000000  0.00000000  0.00000000  1
  Ge  Ge6  1  0.00000000  0.50000000  0.00000000  1
  Ge  Ge7  1  0.50000000  0.00000000  0.00000000  1
  F  F8  1  0.50000000  0.50000000  0.50000000  1
  F  F9  1  0.00000000  0.00000000  0.50000000  1
  F  F10  1  0.39367800  0.89367800  0.79292500  1
  F  F11  1  0.60632200  0.10632200  0.79292500  1
  F  F12  1  0.10632200  0.39367800  0.79292500  1
  F  F13  1  0.89367800  0.60632200  0.79292500  1
  F  F14  1  0.39367800  0.89367800  0.20707500  1
  F  F15  1  0.89367800  0.60632200  0.20707500  1
  F  F16  1  0.84873900  0.34873900  0.00000000  1
  F  F17  1  0.34873900  0.15126100  0.00000000  1
  F  F18  1  0.65126100  0.84873900  0.00000000  1
  F  F19  1  0.15126100  0.65126100  0.00000000  1
  F  F20  1  0.60632200  0.10632200  0.20707500  1
  F  F21  1  0.10632200  0.39367800  0.20707500  1
