# generated using pymatgen
data_RbO3
_symmetry_space_group_name_H-M   'P 1'
_cell_length_a   6.17611400
_cell_length_b   6.65622500
_cell_length_c   9.01787335
_cell_angle_alpha   56.11994420
_cell_angle_beta   90.00000000
_cell_angle_gamma   90.00000000
_symmetry_Int_Tables_number   1
_chemical_formula_structural   RbO3
_chemical_formula_sum   'Rb4 O12'
_cell_volume   307.77511090
_cell_formula_units_Z   4
loop_
 _symmetry_equiv_pos_site_id
 _symmetry_equiv_pos_as_xyz
  1  'x, y, z'
loop_
 _atom_site_type_symbol
 _atom_site_label
 _atom_site_symmetry_multiplicity
 _atom_site_fract_x
 _atom_site_fract_y
 _atom_site_fract_z
 _atom_site_occupancy
  Rb  Rb0  1  0.74332000  0.22347000  0.41458100  1
  Rb  Rb1  1  0.24332000  0.77653000  0.08541900  1
  Rb  Rb2  1  0.25668000  0.77653000  0.58541900  1
  Rb  Rb3  1  0.75668000  0.22347000  0.91458100  1
  O  O4  1  0.43741100  0.10733500  0.20271500  1
  O  O5  1  0.93741100  0.89266500  0.29728500  1
  O  O6  1  0.56258900  0.89266500  0.79728500  1
  O  O7  1  0.06258900  0.10733500  0.70271500  1
  O  O8  1  0.20580900  0.29048000  0.59988000  1
  O  O9  1  0.70580900  0.70952000  0.90012000  1
  O  O10  1  0.79419100  0.70952000  0.40012000  1
  O  O11  1  0.29419100  0.29048000  0.09988000  1
  O  O12  1  0.25713600  0.31479200  0.44258800  1
  O  O13  1  0.75713600  0.68520800  0.05741200  1
  O  O14  1  0.74286400  0.68520800  0.55741200  1
  O  O15  1  0.24286400  0.31479200  0.94258800  1
