# generated using pymatgen
data_NdF3
_symmetry_space_group_name_H-M   'P 1'
_cell_length_a   7.11091385
_cell_length_b   7.11091385
_cell_length_c   7.08554700
_cell_angle_alpha   90.00000000
_cell_angle_beta   90.00000000
_cell_angle_gamma   119.99999865
_symmetry_Int_Tables_number   1
_chemical_formula_structural   NdF3
_chemical_formula_sum   'Nd6 F18'
_cell_volume   310.28076644
_cell_formula_units_Z   6
loop_
 _symmetry_equiv_pos_site_id
 _symmetry_equiv_pos_as_xyz
  1  'x, y, z'
loop_
 _atom_site_type_symbol
 _atom_site_label
 _atom_site_symmetry_multiplicity
 _atom_site_fract_x
 _atom_site_fract_y
 _atom_site_fract_z
 _atom_site_occupancy
  Nd  Nd0  1  0.66943300  0.66943300  0.25000000  1
  Nd  Nd1  1  0.00000000  0.66943300  0.75000000  1
  Nd  Nd2  1  0.66943300  0.00000000  0.75000000  1
  Nd  Nd3  1  0.33056700  0.00000000  0.25000000  1
  Nd  Nd4  1  0.00000000  0.33056700  0.25000000  1
  Nd  Nd5  1  0.33056700  0.33056700  0.75000000  1
  F  F6  1  0.00000000  0.00000000  0.50000000  1
  F  F7  1  0.00000000  0.00000000  0.00000000  1
  F  F8  1  0.33333300  0.66666700  0.25000000  1
  F  F9  1  0.66666700  0.33333300  0.75000000  1
  F  F10  1  0.66666700  0.33333300  0.25000000  1
  F  F11  1  0.33333300  0.66666700  0.75000000  1
  F  F12  1  0.34403900  0.00000000  0.91629300  1
  F  F13  1  0.34403900  0.34403900  0.41629300  1
  F  F14  1  0.00000000  0.65596100  0.41629300  1
  F  F15  1  0.00000000  0.34403900  0.91629300  1
  F  F16  1  0.65596100  0.65596100  0.91629300  1
  F  F17  1  0.34403900  0.00000000  0.58370700  1
  F  F18  1  0.65596100  0.65596100  0.58370700  1
  F  F19  1  0.65596100  0.00000000  0.41629300  1
  F  F20  1  0.00000000  0.34403900  0.58370700  1
  F  F21  1  0.00000000  0.65596100  0.08370700  1
  F  F22  1  0.65596100  0.00000000  0.08370700  1
  F  F23  1  0.34403900  0.34403900  0.08370700  1
