# generated using pymatgen
data_BaTb2ZnO5
_symmetry_space_group_name_H-M   'P 1'
_cell_length_a   5.78106200
_cell_length_b   7.17893100
_cell_length_c   12.49437800
_cell_angle_alpha   90.00000000
_cell_angle_beta   90.00000000
_cell_angle_gamma   90.00000000
_symmetry_Int_Tables_number   1
_chemical_formula_structural   BaTb2ZnO5
_chemical_formula_sum   'Ba4 Tb8 Zn4 O20'
_cell_volume   518.53974169
_cell_formula_units_Z   4
loop_
 _symmetry_equiv_pos_site_id
 _symmetry_equiv_pos_as_xyz
  1  'x, y, z'
loop_
 _atom_site_type_symbol
 _atom_site_label
 _atom_site_symmetry_multiplicity
 _atom_site_fract_x
 _atom_site_fract_y
 _atom_site_fract_z
 _atom_site_occupancy
  Ba  Ba0  1  0.75000000  0.42285300  0.60122000  1
  Ba  Ba1  1  0.75000000  0.07714700  0.10122000  1
  Ba  Ba2  1  0.25000000  0.57714700  0.39878000  1
  Ba  Ba3  1  0.25000000  0.92285300  0.89878000  1
  Tb  Tb4  1  0.25000000  0.11829400  0.29201600  1
  Tb  Tb5  1  0.75000000  0.88170600  0.70798400  1
  Tb  Tb6  1  0.75000000  0.61829400  0.20798400  1
  Tb  Tb7  1  0.25000000  0.38170600  0.79201600  1
  Tb  Tb8  1  0.25000000  0.39952100  0.07449300  1
  Tb  Tb9  1  0.75000000  0.60047900  0.92550700  1
  Tb  Tb10  1  0.75000000  0.89952100  0.42550700  1
  Tb  Tb11  1  0.25000000  0.10047900  0.57449300  1
  Zn  Zn12  1  0.25000000  0.80853300  0.14986500  1
  Zn  Zn13  1  0.75000000  0.30853300  0.35013500  1
  Zn  Zn14  1  0.25000000  0.69146700  0.64986500  1
  Zn  Zn15  1  0.75000000  0.19146700  0.85013500  1
  O  O16  1  0.25000000  0.42617000  0.59996400  1
  O  O17  1  0.75000000  0.57383000  0.40003600  1
  O  O18  1  0.75000000  0.92617000  0.90003600  1
  O  O19  1  0.25000000  0.07383000  0.09996400  1
  O  O20  1  0.00102900  0.85717000  0.27535100  1
  O  O21  1  0.50102900  0.14283000  0.72464900  1
  O  O22  1  0.99897100  0.35717000  0.22464900  1
  O  O23  1  0.49897100  0.64283000  0.77535100  1
  O  O24  1  0.99897100  0.14283000  0.72464900  1
  O  O25  1  0.49897100  0.85717000  0.27535100  1
  O  O26  1  0.00102900  0.64283000  0.77535100  1
  O  O27  1  0.50102900  0.35717000  0.22464900  1
  O  O28  1  0.49767300  0.66370200  0.06606000  1
  O  O29  1  0.99767300  0.33629800  0.93394000  1
  O  O30  1  0.50232700  0.16370200  0.43394000  1
  O  O31  1  0.00232700  0.83629800  0.56606000  1
  O  O32  1  0.99767300  0.16370200  0.43394000  1
  O  O33  1  0.49767300  0.83629800  0.56606000  1
  O  O34  1  0.00232700  0.66370200  0.06606000  1
  O  O35  1  0.50232700  0.33629800  0.93394000  1
