# generated using pymatgen
data_Nd2Si2O7
_symmetry_space_group_name_H-M   'P 1'
_cell_length_a   6.82261200
_cell_length_b   6.73739600
_cell_length_c   12.95245815
_cell_angle_alpha   71.11207579
_cell_angle_beta   90.00000000
_cell_angle_gamma   90.00000000
_symmetry_Int_Tables_number   1
_chemical_formula_structural   Nd2Si2O7
_chemical_formula_sum   'Nd8 Si8 O28'
_cell_volume   563.32184797
_cell_formula_units_Z   4
loop_
 _symmetry_equiv_pos_site_id
 _symmetry_equiv_pos_as_xyz
  1  'x, y, z'
loop_
 _atom_site_type_symbol
 _atom_site_label
 _atom_site_symmetry_multiplicity
 _atom_site_fract_x
 _atom_site_fract_y
 _atom_site_fract_z
 _atom_site_occupancy
  Nd  Nd0  1  0.82196700  0.14376700  0.15510100  1
  Nd  Nd1  1  0.32196700  0.85623300  0.34489900  1
  Nd  Nd2  1  0.17803300  0.85623300  0.84489900  1
  Nd  Nd3  1  0.67803300  0.14376700  0.65510100  1
  Nd  Nd4  1  0.60824900  0.47075800  0.86128200  1
  Nd  Nd5  1  0.10824900  0.52924200  0.63871800  1
  Nd  Nd6  1  0.39175100  0.52924200  0.13871800  1
  Nd  Nd7  1  0.89175100  0.47075800  0.36128200  1
  Si  Si8  1  0.92129300  0.70643200  0.10786000  1
  Si  Si9  1  0.42129300  0.29356800  0.39214000  1
  Si  Si10  1  0.07870700  0.29356800  0.89214000  1
  Si  Si11  1  0.57870700  0.70643200  0.60786000  1
  Si  Si12  1  0.67248100  0.89560600  0.91432800  1
  Si  Si13  1  0.17248100  0.10439400  0.58567200  1
  Si  Si14  1  0.32751900  0.10439400  0.08567200  1
  Si  Si15  1  0.82751900  0.89560600  0.41432800  1
  O  O16  1  0.10491200  0.66289300  0.03895800  1
  O  O17  1  0.60491200  0.33710700  0.46104200  1
  O  O18  1  0.89508800  0.33710700  0.96104200  1
  O  O19  1  0.39508800  0.66289300  0.53895800  1
  O  O20  1  0.82629400  0.79897700  0.84628500  1
  O  O21  1  0.32629400  0.20102300  0.65371500  1
  O  O22  1  0.17370600  0.20102300  0.15371500  1
  O  O23  1  0.67370600  0.79897700  0.34628500  1
  O  O24  1  0.58785500  0.12306600  0.84160500  1
  O  O25  1  0.08785500  0.87693400  0.65839500  1
  O  O26  1  0.41214500  0.87693400  0.15839500  1
  O  O27  1  0.91214500  0.12306600  0.34160500  1
  O  O28  1  0.98746900  0.79167200  0.20756400  1
  O  O29  1  0.48746900  0.20832800  0.29243600  1
  O  O30  1  0.01253100  0.20832800  0.79243600  1
  O  O31  1  0.51253100  0.79167200  0.70756400  1
  O  O32  1  0.71853700  0.90151000  0.52900700  1
  O  O33  1  0.21853700  0.09849000  0.97099300  1
  O  O34  1  0.28146300  0.09849000  0.47099300  1
  O  O35  1  0.78146300  0.90151000  0.02900700  1
  O  O36  1  0.01029700  0.72453400  0.44965400  1
  O  O37  1  0.51029700  0.27546600  0.05034600  1
  O  O38  1  0.98970300  0.27546600  0.55034600  1
  O  O39  1  0.48970300  0.72453400  0.94965400  1
  O  O40  1  0.71991000  0.50056100  0.66518200  1
  O  O41  1  0.21991000  0.49943900  0.83481800  1
  O  O42  1  0.28009000  0.49943900  0.33481800  1
  O  O43  1  0.78009000  0.50056100  0.16518200  1
