# generated using pymatgen
data_SiF4
_symmetry_space_group_name_H-M   'P 1'
_cell_length_a   4.84364717
_cell_length_b   4.84364717
_cell_length_c   4.84364717
_cell_angle_alpha   109.47122063
_cell_angle_beta   109.47122063
_cell_angle_gamma   109.47122063
_symmetry_Int_Tables_number   1
_chemical_formula_structural   SiF4
_chemical_formula_sum   'Si1 F4'
_cell_volume   87.47734839
_cell_formula_units_Z   1
loop_
 _symmetry_equiv_pos_site_id
 _symmetry_equiv_pos_as_xyz
  1  'x, y, z'
loop_
 _atom_site_type_symbol
 _atom_site_label
 _atom_site_symmetry_multiplicity
 _atom_site_fract_x
 _atom_site_fract_y
 _atom_site_fract_z
 _atom_site_occupancy
  Si  Si0  1  0.00000000  0.00000000  0.00000000  1
  F  F1  1  0.67340800  0.67340800  0.67340800  1
  F  F2  1  0.00000000  0.00000000  0.32659200  1
  F  F3  1  0.32659200  0.00000000  0.00000000  1
  F  F4  1  0.00000000  0.32659200  0.00000000  1
