# generated using pymatgen
data_Tm2Si2O7
_symmetry_space_group_name_H-M   'P 1'
_cell_length_a   6.59043700
_cell_length_b   6.62392343
_cell_length_c   12.05588008
_cell_angle_alpha   94.05847967
_cell_angle_beta   91.88782284
_cell_angle_gamma   92.44646409
_symmetry_Int_Tables_number   1
_chemical_formula_structural   Tm2Si2O7
_chemical_formula_sum   'Tm8 Si8 O28'
_cell_volume   524.15412604
_cell_formula_units_Z   4
loop_
 _symmetry_equiv_pos_site_id
 _symmetry_equiv_pos_as_xyz
  1  'x, y, z'
loop_
 _atom_site_type_symbol
 _atom_site_label
 _atom_site_symmetry_multiplicity
 _atom_site_fract_x
 _atom_site_fract_y
 _atom_site_fract_z
 _atom_site_occupancy
  Tm  Tm0  1  0.82476700  0.32611600  0.11126500  1
  Tm  Tm1  1  0.17523300  0.67388400  0.88873500  1
  Tm  Tm2  1  0.86571800  0.71337600  0.63544500  1
  Tm  Tm3  1  0.13428200  0.28662400  0.36455500  1
  Tm  Tm4  1  0.61954300  0.58706300  0.35306300  1
  Tm  Tm5  1  0.38045700  0.41293700  0.64693700  1
  Tm  Tm6  1  0.54825000  0.82737200  0.11361800  1
  Tm  Tm7  1  0.45175000  0.17262800  0.88638200  1
  Si  Si8  1  0.64466800  0.12264500  0.37455500  1
  Si  Si9  1  0.35533200  0.87735500  0.62544500  1
  Si  Si10  1  0.12254700  0.77669300  0.40709300  1
  Si  Si11  1  0.87745300  0.22330700  0.59290700  1
  Si  Si12  1  0.01325500  0.83502000  0.17507000  1
  Si  Si13  1  0.98674500  0.16498000  0.82493000  1
  Si  Si14  1  0.65668800  0.64818100  0.88647700  1
  Si  Si15  1  0.34331200  0.35181900  0.11352300  1
  O  O16  1  0.50091900  0.48309200  0.81538600  1
  O  O17  1  0.49908100  0.51690800  0.18461400  1
  O  O18  1  0.50017700  0.83372700  0.91859000  1
  O  O19  1  0.49982300  0.16627300  0.08141000  1
  O  O20  1  0.85185800  0.70964300  0.81601900  1
  O  O21  1  0.14814200  0.29035700  0.18398100  1
  O  O22  1  0.73018500  0.58248700  0.00804500  1
  O  O23  1  0.26981500  0.41751300  0.99195500  1
  O  O24  1  0.57661300  0.90937800  0.30603200  1
  O  O25  1  0.42338700  0.09062200  0.69396800  1
  O  O26  1  0.46152300  0.27129200  0.41127200  1
  O  O27  1  0.53847700  0.72870800  0.58872800  1
  O  O28  1  0.79326100  0.28209600  0.30954200  1
  O  O29  1  0.20673900  0.71790400  0.69045800  1
  O  O30  1  0.77984100  0.07173000  0.48758000  1
  O  O31  1  0.22015900  0.92827000  0.51242000  1
  O  O32  1  0.14837500  0.01253200  0.87547700  1
  O  O33  1  0.85162500  0.98746800  0.12452300  1
  O  O34  1  0.11297700  0.36637500  0.78606400  1
  O  O35  1  0.88702300  0.63362500  0.21393600  1
  O  O36  1  0.79802000  0.20438600  0.90597000  1
  O  O37  1  0.20198000  0.79561400  0.09403000  1
  O  O38  1  0.90009100  0.06252200  0.69330700  1
  O  O39  1  0.09990900  0.93747800  0.30669300  1
  O  O40  1  0.08953500  0.32466500  0.55018100  1
  O  O41  1  0.91046500  0.67533500  0.44981900  1
  O  O42  1  0.72468100  0.40227400  0.62180900  1
  O  O43  1  0.27531900  0.59772600  0.37819100  1
