# generated using pymatgen
data_Lu2ZnS4
_symmetry_space_group_name_H-M   'P 1'
_cell_length_a   6.26795100
_cell_length_b   7.72716000
_cell_length_c   13.29924500
_cell_angle_alpha   90.00000000
_cell_angle_beta   90.00000000
_cell_angle_gamma   90.00000000
_symmetry_Int_Tables_number   1
_chemical_formula_structural   Lu2ZnS4
_chemical_formula_sum   'Lu8 Zn4 S16'
_cell_volume   644.12845405
_cell_formula_units_Z   4
loop_
 _symmetry_equiv_pos_site_id
 _symmetry_equiv_pos_as_xyz
  1  'x, y, z'
loop_
 _atom_site_type_symbol
 _atom_site_label
 _atom_site_symmetry_multiplicity
 _atom_site_fract_x
 _atom_site_fract_y
 _atom_site_fract_z
 _atom_site_occupancy
  Lu  Lu0  1  0.50000000  0.50000000  0.50000000  1
  Lu  Lu1  1  0.00000000  0.50000000  0.00000000  1
  Lu  Lu2  1  0.50000000  0.00000000  0.50000000  1
  Lu  Lu3  1  0.00000000  0.00000000  0.00000000  1
  Lu  Lu4  1  0.00172700  0.75000000  0.26485900  1
  Lu  Lu5  1  0.50172700  0.25000000  0.23514100  1
  Lu  Lu6  1  0.99827300  0.25000000  0.73514100  1
  Lu  Lu7  1  0.49827300  0.75000000  0.76485900  1
  Zn  Zn8  1  0.58774200  0.75000000  0.09179800  1
  Zn  Zn9  1  0.08774200  0.25000000  0.40820200  1
  Zn  Zn10  1  0.41225800  0.25000000  0.90820200  1
  Zn  Zn11  1  0.91225800  0.75000000  0.59179800  1
  S  S12  1  0.25844200  0.49014600  0.33155700  1
  S  S13  1  0.75844200  0.50985400  0.16844300  1
  S  S14  1  0.74155800  0.99014600  0.66844300  1
  S  S15  1  0.24155800  0.00985400  0.83155700  1
  S  S16  1  0.74155800  0.50985400  0.66844300  1
  S  S17  1  0.24155800  0.49014600  0.83155700  1
  S  S18  1  0.25844200  0.00985400  0.33155700  1
  S  S19  1  0.75844200  0.99014600  0.16844300  1
  S  S20  1  0.74616600  0.75000000  0.92838900  1
  S  S21  1  0.24616600  0.25000000  0.57161100  1
  S  S22  1  0.25383400  0.25000000  0.07161100  1
  S  S23  1  0.75383400  0.75000000  0.42838900  1
  S  S24  1  0.22086700  0.75000000  0.09037700  1
  S  S25  1  0.72086700  0.25000000  0.40962300  1
  S  S26  1  0.77913300  0.25000000  0.90962300  1
  S  S27  1  0.27913300  0.75000000  0.59037700  1
