# generated using pymatgen
data_Ca5P12Ir19
_symmetry_space_group_name_H-M   'P 1'
_cell_length_a   12.68327444
_cell_length_b   12.68327444
_cell_length_c   4.00044200
_cell_angle_alpha   90.00000000
_cell_angle_beta   90.00000000
_cell_angle_gamma   120.00000232
_symmetry_Int_Tables_number   1
_chemical_formula_structural   Ca5P12Ir19
_chemical_formula_sum   'Ca5 P12 Ir19'
_cell_volume   557.31583092
_cell_formula_units_Z   1
loop_
 _symmetry_equiv_pos_site_id
 _symmetry_equiv_pos_as_xyz
  1  'x, y, z'
loop_
 _atom_site_type_symbol
 _atom_site_label
 _atom_site_symmetry_multiplicity
 _atom_site_fract_x
 _atom_site_fract_y
 _atom_site_fract_z
 _atom_site_occupancy
  Ca  Ca0  1  0.00000000  0.18244100  0.50000000  1
  Ca  Ca1  1  0.81755900  0.81755900  0.50000000  1
  Ca  Ca2  1  0.18244100  0.00000000  0.50000000  1
  Ca  Ca3  1  0.66666700  0.33333300  0.00000000  1
  Ca  Ca4  1  0.33333300  0.66666700  0.00000000  1
  P  P5  1  0.48434300  0.31128000  0.50000000  1
  P  P6  1  0.81952100  0.00000000  0.00000000  1
  P  P7  1  0.18047900  0.18047900  0.00000000  1
  P  P8  1  0.00000000  0.81952100  0.00000000  1
  P  P9  1  0.35797100  0.00000000  0.00000000  1
  P  P10  1  0.68872000  0.17306400  0.50000000  1
  P  P11  1  0.82693600  0.51565700  0.50000000  1
  P  P12  1  0.51565700  0.82693600  0.50000000  1
  P  P13  1  0.17306400  0.68872000  0.50000000  1
  P  P14  1  0.31128000  0.48434300  0.50000000  1
  P  P15  1  0.00000000  0.35797100  0.00000000  1
  P  P16  1  0.64202900  0.64202900  0.00000000  1
  Ir  Ir17  1  0.80248500  0.18063600  0.00000000  1
  Ir  Ir18  1  0.37815000  0.19751500  0.00000000  1
  Ir  Ir19  1  0.63871700  0.50819700  0.50000000  1
  Ir  Ir20  1  0.86948000  0.36128300  0.50000000  1
  Ir  Ir21  1  0.36128300  0.86948000  0.50000000  1
  Ir  Ir22  1  0.50819700  0.63871700  0.50000000  1
  Ir  Ir23  1  0.13052000  0.49180300  0.50000000  1
  Ir  Ir24  1  0.81936400  0.62185000  0.00000000  1
  Ir  Ir25  1  0.62185000  0.81936400  0.00000000  1
  Ir  Ir26  1  0.18063600  0.80248500  0.00000000  1
  Ir  Ir27  1  0.19751500  0.37815000  0.00000000  1
  Ir  Ir28  1  0.00000000  0.71272300  0.50000000  1
  Ir  Ir29  1  0.28727700  0.28727700  0.50000000  1
  Ir  Ir30  1  0.71272300  0.00000000  0.50000000  1
  Ir  Ir31  1  0.00000000  0.53848200  0.00000000  1
  Ir  Ir32  1  0.46151800  0.46151800  0.00000000  1
  Ir  Ir33  1  0.53848200  0.00000000  0.00000000  1
  Ir  Ir34  1  0.00000000  0.00000000  0.00000000  1
  Ir  Ir35  1  0.49180300  0.13052000  0.50000000  1
