# generated using pymatgen
data_Lu2Si2O7
_symmetry_space_group_name_H-M   'P 1'
_cell_length_a   6.58290800
_cell_length_b   6.58290800
_cell_length_c   12.00969300
_cell_angle_alpha   90.00000000
_cell_angle_beta   90.00000000
_cell_angle_gamma   90.00000000
_symmetry_Int_Tables_number   1
_chemical_formula_structural   Lu2Si2O7
_chemical_formula_sum   'Lu8 Si8 O28'
_cell_volume   520.43617587
_cell_formula_units_Z   4
loop_
 _symmetry_equiv_pos_site_id
 _symmetry_equiv_pos_as_xyz
  1  'x, y, z'
loop_
 _atom_site_type_symbol
 _atom_site_label
 _atom_site_symmetry_multiplicity
 _atom_site_fract_x
 _atom_site_fract_y
 _atom_site_fract_z
 _atom_site_occupancy
  Lu  Lu0  1  0.64747000  0.12474500  0.36642300  1
  Lu  Lu1  1  0.35253000  0.87525500  0.86642300  1
  Lu  Lu2  1  0.12474500  0.64747000  0.63357700  1
  Lu  Lu3  1  0.62474500  0.85253000  0.11642300  1
  Lu  Lu4  1  0.37525500  0.14747000  0.61642300  1
  Lu  Lu5  1  0.85253000  0.62474500  0.88357700  1
  Lu  Lu6  1  0.14747000  0.37525500  0.38357700  1
  Lu  Lu7  1  0.87525500  0.35253000  0.13357700  1
  Si  Si8  1  0.84762000  0.09809900  0.87847800  1
  Si  Si9  1  0.15238000  0.90190100  0.37847800  1
  Si  Si10  1  0.09809900  0.84762000  0.12152200  1
  Si  Si11  1  0.59809900  0.65238000  0.62847800  1
  Si  Si12  1  0.40190100  0.34762000  0.12847800  1
  Si  Si13  1  0.65238000  0.59809900  0.37152200  1
  Si  Si14  1  0.34762000  0.40190100  0.87152200  1
  Si  Si15  1  0.90190100  0.15238000  0.62152200  1
  O  O16  1  0.86105600  0.30736400  0.95190800  1
  O  O17  1  0.13894400  0.69263600  0.45190800  1
  O  O18  1  0.30736400  0.86105600  0.04809200  1
  O  O19  1  0.80736400  0.63894400  0.70190800  1
  O  O20  1  0.19263600  0.36105600  0.20190800  1
  O  O21  1  0.63894400  0.80736400  0.29809200  1
  O  O22  1  0.36105600  0.19263600  0.79809200  1
  O  O23  1  0.69263600  0.13894400  0.54809200  1
  O  O24  1  0.66422800  0.94467500  0.92654200  1
  O  O25  1  0.33577200  0.05532500  0.42654200  1
  O  O26  1  0.94467500  0.66422800  0.07345800  1
  O  O27  1  0.44467500  0.83577200  0.67654200  1
  O  O28  1  0.55532500  0.16422800  0.17654200  1
  O  O29  1  0.83577200  0.44467500  0.32345800  1
  O  O30  1  0.16422800  0.55532500  0.82345800  1
  O  O31  1  0.05532500  0.33577200  0.57345800  1
  O  O32  1  0.81549700  0.18450300  0.75000000  1
  O  O33  1  0.31549700  0.31549700  0.00000000  1
  O  O34  1  0.68450300  0.68450300  0.50000000  1
  O  O35  1  0.18450300  0.81549700  0.25000000  1
  O  O36  1  0.07046100  0.97045500  0.62460900  1
  O  O37  1  0.52954500  0.57046100  0.87460900  1
  O  O38  1  0.47045500  0.42953900  0.37460900  1
  O  O39  1  0.57046100  0.52954500  0.12539100  1
  O  O40  1  0.42953900  0.47045500  0.62539100  1
  O  O41  1  0.92953900  0.02954500  0.12460900  1
  O  O42  1  0.97045500  0.07046100  0.37539100  1
  O  O43  1  0.02954500  0.92953900  0.87539100  1
