# generated using pymatgen
data_Te2Ru
_symmetry_space_group_name_H-M   'P 1'
_cell_length_a   6.46616200
_cell_length_b   6.46616200
_cell_length_c   6.46616200
_cell_angle_alpha   90.00000000
_cell_angle_beta   90.00000000
_cell_angle_gamma   90.00000000
_symmetry_Int_Tables_number   1
_chemical_formula_structural   Te2Ru
_chemical_formula_sum   'Te8 Ru4'
_cell_volume   270.35832245
_cell_formula_units_Z   4
loop_
 _symmetry_equiv_pos_site_id
 _symmetry_equiv_pos_as_xyz
  1  'x, y, z'
loop_
 _atom_site_type_symbol
 _atom_site_label
 _atom_site_symmetry_multiplicity
 _atom_site_fract_x
 _atom_site_fract_y
 _atom_site_fract_z
 _atom_site_occupancy
  Te  Te0  1  0.37248900  0.37248900  0.37248900  1
  Te  Te1  1  0.12751100  0.62751100  0.87248900  1
  Te  Te2  1  0.87248900  0.12751100  0.62751100  1
  Te  Te3  1  0.62751100  0.87248900  0.12751100  1
  Te  Te4  1  0.62751100  0.62751100  0.62751100  1
  Te  Te5  1  0.87248900  0.37248900  0.12751100  1
  Te  Te6  1  0.12751100  0.87248900  0.37248900  1
  Te  Te7  1  0.37248900  0.12751100  0.87248900  1
  Ru  Ru8  1  0.00000000  0.00000000  0.00000000  1
  Ru  Ru9  1  0.50000000  0.00000000  0.50000000  1
  Ru  Ru10  1  0.50000000  0.50000000  0.00000000  1
  Ru  Ru11  1  0.00000000  0.50000000  0.50000000  1
