# generated using pymatgen
data_HfO2
_symmetry_space_group_name_H-M   'P 1'
_cell_length_a   5.08568300
_cell_length_b   5.24835500
_cell_length_c   10.05880800
_cell_angle_alpha   90.00000000
_cell_angle_beta   90.00000000
_cell_angle_gamma   90.00000000
_symmetry_Int_Tables_number   1
_chemical_formula_structural   HfO2
_chemical_formula_sum   'Hf8 O16'
_cell_volume   268.48436997
_cell_formula_units_Z   8
loop_
 _symmetry_equiv_pos_site_id
 _symmetry_equiv_pos_as_xyz
  1  'x, y, z'
loop_
 _atom_site_type_symbol
 _atom_site_label
 _atom_site_symmetry_multiplicity
 _atom_site_fract_x
 _atom_site_fract_y
 _atom_site_fract_z
 _atom_site_occupancy
  Hf  Hf0  1  0.75404600  0.46427700  0.11556800  1
  Hf  Hf1  1  0.25404600  0.53572300  0.38443200  1
  Hf  Hf2  1  0.74595400  0.96427700  0.88443200  1
  Hf  Hf3  1  0.24595400  0.03572300  0.61556800  1
  Hf  Hf4  1  0.24595400  0.53572300  0.88443200  1
  Hf  Hf5  1  0.74595400  0.46427700  0.61556800  1
  Hf  Hf6  1  0.25404600  0.03572300  0.11556800  1
  Hf  Hf7  1  0.75404600  0.96427700  0.38443200  1
  O  O8  1  0.99759500  0.26142700  0.47748700  1
  O  O9  1  0.49759500  0.73857300  0.02251300  1
  O  O10  1  0.50240500  0.76142700  0.52251300  1
  O  O11  1  0.00240500  0.23857300  0.97748700  1
  O  O12  1  0.00240500  0.73857300  0.52251300  1
  O  O13  1  0.50240500  0.26142700  0.97748700  1
  O  O14  1  0.49759500  0.23857300  0.47748700  1
  O  O15  1  0.99759500  0.76142700  0.02251300  1
  O  O16  1  0.62431400  0.62744100  0.28905100  1
  O  O17  1  0.12431400  0.37255900  0.21094900  1
  O  O18  1  0.87568600  0.12744100  0.71094900  1
  O  O19  1  0.37568600  0.87255900  0.78905100  1
  O  O20  1  0.37568600  0.37255900  0.71094900  1
  O  O21  1  0.87568600  0.62744100  0.78905100  1
  O  O22  1  0.12431400  0.87255900  0.28905100  1
  O  O23  1  0.62431400  0.12744100  0.21094900  1
