# generated using pymatgen
data_KZnPO4
_symmetry_space_group_name_H-M   'P 1'
_cell_length_a   5.35709800
_cell_length_b   8.77390700
_cell_length_c   9.17721500
_cell_angle_alpha   90.00000000
_cell_angle_beta   90.00000000
_cell_angle_gamma   90.00000000
_symmetry_Int_Tables_number   1
_chemical_formula_structural   KZnPO4
_chemical_formula_sum   'K4 Zn4 P4 O16'
_cell_volume   431.35369665
_cell_formula_units_Z   4
loop_
 _symmetry_equiv_pos_site_id
 _symmetry_equiv_pos_as_xyz
  1  'x, y, z'
loop_
 _atom_site_type_symbol
 _atom_site_label
 _atom_site_symmetry_multiplicity
 _atom_site_fract_x
 _atom_site_fract_y
 _atom_site_fract_z
 _atom_site_occupancy
  K  K0  1  0.52676400  0.99708500  0.77587000  1
  K  K1  1  0.52676400  0.49708500  0.72413000  1
  K  K2  1  0.02676400  0.00291500  0.22413000  1
  K  K3  1  0.02676400  0.50291500  0.27587000  1
  Zn  Zn4  1  0.51974400  0.31175100  0.08933300  1
  Zn  Zn5  1  0.01974400  0.18824900  0.58933300  1
  Zn  Zn6  1  0.51974400  0.81175100  0.41066700  1
  Zn  Zn7  1  0.01974400  0.68824900  0.91066700  1
  P  P8  1  0.52332000  0.70908600  0.07526900  1
  P  P9  1  0.02332000  0.29091400  0.92473100  1
  P  P10  1  0.02332000  0.79091400  0.57526900  1
  P  P11  1  0.52332000  0.20908600  0.42473100  1
  O  O12  1  0.86596300  0.24605900  0.06154100  1
  O  O13  1  0.36596300  0.75394100  0.93845900  1
  O  O14  1  0.36596300  0.25394100  0.56154100  1
  O  O15  1  0.86596300  0.74605900  0.43845900  1
  O  O16  1  0.54328100  0.53519600  0.09143900  1
  O  O17  1  0.04328100  0.46480400  0.90856100  1
  O  O18  1  0.04328100  0.96480400  0.59143900  1
  O  O19  1  0.54328100  0.03519500  0.40856100  1
  O  O20  1  0.39464400  0.77759200  0.21207900  1
  O  O21  1  0.89464400  0.22240800  0.78792100  1
  O  O22  1  0.89464400  0.72240800  0.71207900  1
  O  O23  1  0.39464400  0.27759200  0.28792100  1
  O  O24  1  0.29068400  0.72200700  0.55550500  1
  O  O25  1  0.79068400  0.27799300  0.44449500  1
  O  O26  1  0.79068400  0.77799300  0.05550500  1
  O  O27  1  0.29068400  0.22200700  0.94449500  1
