# generated using pymatgen
data_KPF6
_symmetry_space_group_name_H-M   'P 1'
_cell_length_a   7.82220300
_cell_length_b   7.82220300
_cell_length_c   7.82220300
_cell_angle_alpha   90.00000000
_cell_angle_beta   90.00000000
_cell_angle_gamma   90.00000000
_symmetry_Int_Tables_number   1
_chemical_formula_structural   KPF6
_chemical_formula_sum   'K4 P4 F24'
_cell_volume   478.61603808
_cell_formula_units_Z   4
loop_
 _symmetry_equiv_pos_site_id
 _symmetry_equiv_pos_as_xyz
  1  'x, y, z'
loop_
 _atom_site_type_symbol
 _atom_site_label
 _atom_site_symmetry_multiplicity
 _atom_site_fract_x
 _atom_site_fract_y
 _atom_site_fract_z
 _atom_site_occupancy
  K  K0  1  0.50000000  0.50000000  0.50000000  1
  K  K1  1  0.00000000  0.50000000  0.00000000  1
  K  K2  1  0.00000000  0.00000000  0.50000000  1
  K  K3  1  0.50000000  0.00000000  0.00000000  1
  P  P4  1  0.00000000  0.00000000  0.00000000  1
  P  P5  1  0.50000000  0.00000000  0.50000000  1
  P  P6  1  0.50000000  0.50000000  0.00000000  1
  P  P7  1  0.00000000  0.50000000  0.50000000  1
  F  F8  1  0.62076000  0.15721100  0.56815400  1
  F  F9  1  0.12076000  0.34278900  0.43184600  1
  F  F10  1  0.37924000  0.65721100  0.93184600  1
  F  F11  1  0.34278900  0.43184600  0.12076000  1
  F  F12  1  0.93184600  0.37924000  0.65721100  1
  F  F13  1  0.43184600  0.12076000  0.34278900  1
  F  F14  1  0.15721100  0.56815400  0.62076000  1
  F  F15  1  0.56815400  0.62076000  0.15721100  1
  F  F16  1  0.12076000  0.15721100  0.93184600  1
  F  F17  1  0.93184600  0.12076000  0.15721100  1
  F  F18  1  0.15721100  0.93184600  0.12076000  1
  F  F19  1  0.34278900  0.06815400  0.62076000  1
  F  F20  1  0.43184600  0.37924000  0.84278900  1
  F  F21  1  0.84278900  0.43184600  0.37924000  1
  F  F22  1  0.56815400  0.87924000  0.65721100  1
  F  F23  1  0.06815400  0.62076000  0.34278900  1
  F  F24  1  0.65721100  0.56815400  0.87924000  1
  F  F25  1  0.62076000  0.34278900  0.06815400  1
  F  F26  1  0.87924000  0.65721100  0.56815400  1
  F  F27  1  0.37924000  0.84278900  0.43184600  1
  F  F28  1  0.87924000  0.84278900  0.06815400  1
  F  F29  1  0.06815400  0.87924000  0.84278900  1
  F  F30  1  0.84278900  0.06815400  0.87924000  1
  F  F31  1  0.65721100  0.93184600  0.37924000  1
