# generated using pymatgen
data_LaMnSbO
_symmetry_space_group_name_H-M   'P 1'
_cell_length_a   4.32006600
_cell_length_b   4.32006600
_cell_length_c   9.72945400
_cell_angle_alpha   90.00000000
_cell_angle_beta   90.00000000
_cell_angle_gamma   90.00000000
_symmetry_Int_Tables_number   1
_chemical_formula_structural   LaMnSbO
_chemical_formula_sum   'La2 Mn2 Sb2 O2'
_cell_volume   181.58051050
_cell_formula_units_Z   2
loop_
 _symmetry_equiv_pos_site_id
 _symmetry_equiv_pos_as_xyz
  1  'x, y, z'
loop_
 _atom_site_type_symbol
 _atom_site_label
 _atom_site_symmetry_multiplicity
 _atom_site_fract_x
 _atom_site_fract_y
 _atom_site_fract_z
 _atom_site_occupancy
  La  La0  1  0.00000000  0.50000000  0.88575300  1
  La  La1  1  0.50000000  0.00000000  0.11424700  1
  Mn  Mn2  1  0.00000000  0.00000000  0.50000000  1
  Mn  Mn3  1  0.50000000  0.50000000  0.50000000  1
  Sb  Sb4  1  0.50000000  0.00000000  0.68877900  1
  Sb  Sb5  1  0.00000000  0.50000000  0.31122100  1
  O  O6  1  0.50000000  0.50000000  0.00000000  1
  O  O7  1  0.00000000  0.00000000  0.00000000  1
