# generated using pymatgen
data_CaV4O9
_symmetry_space_group_name_H-M   'P 1'
_cell_length_a   8.42453100
_cell_length_b   8.42453100
_cell_length_c   5.19846900
_cell_angle_alpha   90.00000000
_cell_angle_beta   90.00000000
_cell_angle_gamma   90.00000000
_symmetry_Int_Tables_number   1
_chemical_formula_structural   CaV4O9
_chemical_formula_sum   'Ca2 V8 O18'
_cell_volume   368.94949813
_cell_formula_units_Z   2
loop_
 _symmetry_equiv_pos_site_id
 _symmetry_equiv_pos_as_xyz
  1  'x, y, z'
loop_
 _atom_site_type_symbol
 _atom_site_label
 _atom_site_symmetry_multiplicity
 _atom_site_fract_x
 _atom_site_fract_y
 _atom_site_fract_z
 _atom_site_occupancy
  Ca  Ca0  1  0.00000000  0.50000000  0.15757100  1
  Ca  Ca1  1  0.50000000  0.00000000  0.84242900  1
  V  V2  1  0.09039200  0.78511700  0.62672600  1
  V  V3  1  0.21488300  0.09039200  0.37327400  1
  V  V4  1  0.71488300  0.59039200  0.62672600  1
  V  V5  1  0.59039200  0.28511700  0.37327400  1
  V  V6  1  0.90960800  0.21488300  0.62672600  1
  V  V7  1  0.28511700  0.40960800  0.62672600  1
  V  V8  1  0.40960800  0.71488300  0.37327400  1
  V  V9  1  0.78511700  0.90960800  0.37327400  1
  O  O10  1  0.00000000  0.00000000  0.50000000  1
  O  O11  1  0.50000000  0.50000000  0.50000000  1
  O  O12  1  0.74600600  0.93007900  0.06349100  1
  O  O13  1  0.43007900  0.75399400  0.06349100  1
  O  O14  1  0.56992100  0.24600600  0.06349100  1
  O  O15  1  0.25399400  0.06992100  0.06349100  1
  O  O16  1  0.75399400  0.56992100  0.93650900  1
  O  O17  1  0.06992100  0.74600600  0.93650900  1
  O  O18  1  0.93007900  0.25399400  0.93650900  1
  O  O19  1  0.24600600  0.43007900  0.93650900  1
  O  O20  1  0.10694000  0.29312500  0.46086900  1
  O  O21  1  0.79312500  0.39306000  0.46086900  1
  O  O22  1  0.20687500  0.60694000  0.46086900  1
  O  O23  1  0.89306000  0.70687500  0.46086900  1
  O  O24  1  0.60694000  0.79312500  0.53913100  1
  O  O25  1  0.70687500  0.10694000  0.53913100  1
  O  O26  1  0.29312500  0.89306000  0.53913100  1
  O  O27  1  0.39306000  0.20687500  0.53913100  1
