# generated using pymatgen
data_RbGe
_symmetry_space_group_name_H-M   'P 1'
_cell_length_a   13.35724300
_cell_length_b   13.35724300
_cell_length_c   13.35724300
_cell_angle_alpha   90.00000000
_cell_angle_beta   90.00000000
_cell_angle_gamma   90.00000000
_symmetry_Int_Tables_number   1
_chemical_formula_structural   RbGe
_chemical_formula_sum   'Rb32 Ge32'
_cell_volume   2383.14507315
_cell_formula_units_Z   32
loop_
 _symmetry_equiv_pos_site_id
 _symmetry_equiv_pos_as_xyz
  1  'x, y, z'
loop_
 _atom_site_type_symbol
 _atom_site_label
 _atom_site_symmetry_multiplicity
 _atom_site_fract_x
 _atom_site_fract_y
 _atom_site_fract_z
 _atom_site_occupancy
  Rb  Rb0  1  0.16760000  0.83240000  0.16760000  1
  Rb  Rb1  1  0.83240000  0.16760000  0.16760000  1
  Rb  Rb2  1  0.16760000  0.16760000  0.83240000  1
  Rb  Rb3  1  0.83240000  0.83240000  0.83240000  1
  Rb  Rb4  1  0.66760000  0.66760000  0.33240000  1
  Rb  Rb5  1  0.33240000  0.66760000  0.66760000  1
  Rb  Rb6  1  0.66760000  0.33240000  0.66760000  1
  Rb  Rb7  1  0.33240000  0.33240000  0.33240000  1
  Rb  Rb8  1  0.43566700  0.64108100  0.16362400  1
  Rb  Rb9  1  0.35891900  0.83637600  0.43566700  1
  Rb  Rb10  1  0.16362400  0.56433300  0.35891900  1
  Rb  Rb11  1  0.56433300  0.35891900  0.16362400  1
  Rb  Rb12  1  0.64108100  0.16362400  0.43566700  1
  Rb  Rb13  1  0.83637600  0.43566700  0.35891900  1
  Rb  Rb14  1  0.43566700  0.35891900  0.83637600  1
  Rb  Rb15  1  0.35891900  0.16362400  0.56433300  1
  Rb  Rb16  1  0.16362400  0.43566700  0.64108100  1
  Rb  Rb17  1  0.56433300  0.64108100  0.83637600  1
  Rb  Rb18  1  0.64108100  0.83637600  0.56433300  1
  Rb  Rb19  1  0.83637600  0.56433300  0.64108100  1
  Rb  Rb20  1  0.93566700  0.66362400  0.14108100  1
  Rb  Rb21  1  0.85891900  0.93566700  0.33637600  1
  Rb  Rb22  1  0.66362400  0.85891900  0.06433300  1
  Rb  Rb23  1  0.06433300  0.66362400  0.85891900  1
  Rb  Rb24  1  0.14108100  0.93566700  0.66362400  1
  Rb  Rb25  1  0.33637600  0.85891900  0.93566700  1
  Rb  Rb26  1  0.93566700  0.33637600  0.85891900  1
  Rb  Rb27  1  0.85891900  0.06433300  0.66362400  1
  Rb  Rb28  1  0.66362400  0.14108100  0.93566700  1
  Rb  Rb29  1  0.06433300  0.33637600  0.14108100  1
  Rb  Rb30  1  0.14108100  0.06433300  0.33637600  1
  Rb  Rb31  1  0.33637600  0.14108100  0.06433300  1
  Ge  Ge32  1  0.43106400  0.56893600  0.43106400  1
  Ge  Ge33  1  0.56893600  0.43106400  0.43106400  1
  Ge  Ge34  1  0.43106400  0.43106400  0.56893600  1
  Ge  Ge35  1  0.56893600  0.56893600  0.56893600  1
  Ge  Ge36  1  0.93106400  0.93106400  0.06893600  1
  Ge  Ge37  1  0.06893600  0.93106400  0.93106400  1
  Ge  Ge38  1  0.93106400  0.06893600  0.93106400  1
  Ge  Ge39  1  0.06893600  0.06893600  0.06893600  1
  Ge  Ge40  1  0.07583800  0.81786500  0.43730000  1
  Ge  Ge41  1  0.18213500  0.56270000  0.07583800  1
  Ge  Ge42  1  0.43730000  0.92416200  0.18213500  1
  Ge  Ge43  1  0.92416200  0.18213500  0.43730000  1
  Ge  Ge44  1  0.81786500  0.43730000  0.07583800  1
  Ge  Ge45  1  0.56270000  0.07583800  0.18213500  1
  Ge  Ge46  1  0.07583800  0.18213500  0.56270000  1
  Ge  Ge47  1  0.18213500  0.43730000  0.92416200  1
  Ge  Ge48  1  0.43730000  0.07583800  0.81786500  1
  Ge  Ge49  1  0.92416200  0.81786500  0.56270000  1
  Ge  Ge50  1  0.81786500  0.56270000  0.92416200  1
  Ge  Ge51  1  0.56270000  0.92416200  0.81786500  1
  Ge  Ge52  1  0.57583800  0.93730000  0.31786500  1
  Ge  Ge53  1  0.68213500  0.57583800  0.06270000  1
  Ge  Ge54  1  0.93730000  0.68213500  0.42416200  1
  Ge  Ge55  1  0.42416200  0.93730000  0.68213500  1
  Ge  Ge56  1  0.31786500  0.57583800  0.93730000  1
  Ge  Ge57  1  0.06270000  0.68213500  0.57583800  1
  Ge  Ge58  1  0.57583800  0.06270000  0.68213500  1
  Ge  Ge59  1  0.68213500  0.42416200  0.93730000  1
  Ge  Ge60  1  0.93730000  0.31786500  0.57583800  1
  Ge  Ge61  1  0.42416200  0.06270000  0.31786500  1
  Ge  Ge62  1  0.31786500  0.42416200  0.06270000  1
  Ge  Ge63  1  0.06270000  0.31786500  0.42416200  1
