# generated using pymatgen
data_KCoO2
_symmetry_space_group_name_H-M   'P 1'
_cell_length_a   5.52814865
_cell_length_b   5.52814865
_cell_length_c   5.52814865
_cell_angle_alpha   116.47547033
_cell_angle_beta   116.47547033
_cell_angle_gamma   96.22140440
_symmetry_Int_Tables_number   1
_chemical_formula_structural   KCoO2
_chemical_formula_sum   'K2 Co2 O4'
_cell_volume   125.02629085
_cell_formula_units_Z   2
loop_
 _symmetry_equiv_pos_site_id
 _symmetry_equiv_pos_as_xyz
  1  'x, y, z'
loop_
 _atom_site_type_symbol
 _atom_site_label
 _atom_site_symmetry_multiplicity
 _atom_site_fract_x
 _atom_site_fract_y
 _atom_site_fract_z
 _atom_site_occupancy
  K  K0  1  0.75000000  0.25000000  0.50000000  1
  K  K1  1  0.00000000  0.00000000  0.00000000  1
  Co  Co2  1  0.25000000  0.75000000  0.50000000  1
  Co  Co3  1  0.50000000  0.50000000  0.00000000  1
  O  O4  1  0.24459700  0.62500000  0.11959700  1
  O  O5  1  0.87500000  0.75540300  0.38040300  1
  O  O6  1  0.37500000  0.49459700  0.61959700  1
  O  O7  1  0.50540300  0.12500000  0.88040300  1
