# generated using pymatgen
data_BaV4O9
_symmetry_space_group_name_H-M   'P 1'
_cell_length_a   5.09013400
_cell_length_b   7.91066000
_cell_length_c   9.58032346
_cell_angle_alpha   68.39809146
_cell_angle_beta   90.00000000
_cell_angle_gamma   90.00000000
_symmetry_Int_Tables_number   1
_chemical_formula_structural   BaV4O9
_chemical_formula_sum   'Ba2 V8 O18'
_cell_volume   358.66990486
_cell_formula_units_Z   2
loop_
 _symmetry_equiv_pos_site_id
 _symmetry_equiv_pos_as_xyz
  1  'x, y, z'
loop_
 _atom_site_type_symbol
 _atom_site_label
 _atom_site_symmetry_multiplicity
 _atom_site_fract_x
 _atom_site_fract_y
 _atom_site_fract_z
 _atom_site_occupancy
  Ba  Ba0  1  0.32977900  0.00000000  0.25000000  1
  Ba  Ba1  1  0.67022100  0.00000000  0.75000000  1
  V  V2  1  0.74242100  0.69289500  0.15311700  1
  V  V3  1  0.74242100  0.30710500  0.34688300  1
  V  V4  1  0.25757900  0.30710500  0.84688300  1
  V  V5  1  0.25757900  0.69289500  0.65311700  1
  V  V6  1  0.24316000  0.55187700  0.05510300  1
  V  V7  1  0.24316000  0.44812300  0.44489700  1
  V  V8  1  0.75684000  0.44812300  0.94489700  1
  V  V9  1  0.75684000  0.55187700  0.55510300  1
  O  O10  1  0.02430900  0.50000000  0.25000000  1
  O  O11  1  0.97569100  0.50000000  0.75000000  1
  O  O12  1  0.90300200  0.67419000  0.97480200  1
  O  O13  1  0.90300200  0.32581000  0.52519800  1
  O  O14  1  0.09699800  0.32581000  0.02519800  1
  O  O15  1  0.09699800  0.67419000  0.47480200  1
  O  O16  1  0.42245700  0.58752200  0.85090300  1
  O  O17  1  0.42245700  0.41247800  0.64909700  1
  O  O18  1  0.57754300  0.41247800  0.14909700  1
  O  O19  1  0.57754300  0.58752200  0.35090300  1
  O  O20  1  0.12676000  0.88134700  0.66054800  1
  O  O21  1  0.12676000  0.11865300  0.83945200  1
  O  O22  1  0.87324000  0.11865300  0.33945200  1
  O  O23  1  0.87324000  0.88134700  0.16054800  1
  O  O24  1  0.56503800  0.76974200  0.56456000  1
  O  O25  1  0.56503800  0.23025800  0.93544000  1
  O  O26  1  0.43496200  0.23025800  0.43544000  1
  O  O27  1  0.43496200  0.76974200  0.06456000  1
