# generated using pymatgen
data_Mn5O8
_symmetry_space_group_name_H-M   'P 1'
_cell_length_a   5.98537477
_cell_length_b   5.98537477
_cell_length_c   4.94467995
_cell_angle_alpha   73.11347227
_cell_angle_beta   73.11347227
_cell_angle_gamma   58.13726698
_symmetry_Int_Tables_number   1
_chemical_formula_structural   Mn5O8
_chemical_formula_sum   'Mn5 O8'
_cell_volume   141.89762700
_cell_formula_units_Z   1
loop_
 _symmetry_equiv_pos_site_id
 _symmetry_equiv_pos_as_xyz
  1  'x, y, z'
loop_
 _atom_site_type_symbol
 _atom_site_label
 _atom_site_symmetry_multiplicity
 _atom_site_fract_x
 _atom_site_fract_y
 _atom_site_fract_z
 _atom_site_occupancy
  Mn  Mn0  1  0.72076800  0.72076800  0.34371900  1
  Mn  Mn1  1  0.27923200  0.27923200  0.65628100  1
  Mn  Mn2  1  0.00000000  0.00000000  0.50000000  1
  Mn  Mn3  1  0.25929100  0.74070900  0.00000000  1
  Mn  Mn4  1  0.74070900  0.25929100  0.00000000  1
  O  O5  1  0.11421200  0.66259600  0.39471300  1
  O  O6  1  0.33740400  0.88578800  0.60528700  1
  O  O7  1  0.66259600  0.11421200  0.39471300  1
  O  O8  1  0.88578800  0.33740400  0.60528700  1
  O  O9  1  0.10333800  0.10333800  0.09176600  1
  O  O10  1  0.89666200  0.89666200  0.90823400  1
  O  O11  1  0.60536000  0.60536000  0.06737300  1
  O  O12  1  0.39464000  0.39464000  0.93262700  1
