# generated using pymatgen
data_Cd4SF6
_symmetry_space_group_name_H-M   'P 1'
_cell_length_a   8.00521500
_cell_length_b   8.00521500
_cell_length_c   5.61137000
_cell_angle_alpha   90.00000000
_cell_angle_beta   90.00000000
_cell_angle_gamma   90.00000000
_symmetry_Int_Tables_number   1
_chemical_formula_structural   Cd4SF6
_chemical_formula_sum   'Cd8 S2 F12'
_cell_volume   359.59604532
_cell_formula_units_Z   2
loop_
 _symmetry_equiv_pos_site_id
 _symmetry_equiv_pos_as_xyz
  1  'x, y, z'
loop_
 _atom_site_type_symbol
 _atom_site_label
 _atom_site_symmetry_multiplicity
 _atom_site_fract_x
 _atom_site_fract_y
 _atom_site_fract_z
 _atom_site_occupancy
  Cd  Cd0  1  0.50000000  0.76366600  0.23327000  1
  Cd  Cd1  1  0.50000000  0.23633400  0.23327000  1
  Cd  Cd2  1  0.26366600  0.00000000  0.73327000  1
  Cd  Cd3  1  0.73633400  0.00000000  0.73327000  1
  Cd  Cd4  1  0.00000000  0.73633400  0.26673000  1
  Cd  Cd5  1  0.00000000  0.26366600  0.26673000  1
  Cd  Cd6  1  0.23633400  0.50000000  0.76673000  1
  Cd  Cd7  1  0.76366600  0.50000000  0.76673000  1
  S  S8  1  0.00000000  0.00000000  0.50000000  1
  S  S9  1  0.50000000  0.50000000  0.00000000  1
  F  F10  1  0.28618600  0.28618600  0.50000000  1
  F  F11  1  0.28618600  0.71381400  0.50000000  1
  F  F12  1  0.71381400  0.28618600  0.50000000  1
  F  F13  1  0.71381400  0.71381400  0.50000000  1
  F  F14  1  0.78618600  0.78618600  0.00000000  1
  F  F15  1  0.78618600  0.21381400  0.00000000  1
  F  F16  1  0.21381400  0.78618600  0.00000000  1
  F  F17  1  0.21381400  0.21381400  0.00000000  1
  F  F18  1  0.50000000  0.00000000  0.97180500  1
  F  F19  1  0.50000000  0.00000000  0.47180500  1
  F  F20  1  0.00000000  0.50000000  0.52819500  1
  F  F21  1  0.00000000  0.50000000  0.02819500  1
