# generated using pymatgen
data_UMoO6
_symmetry_space_group_name_H-M   'P 1'
_cell_length_a   5.56939900
_cell_length_b   7.28503100
_cell_length_c   13.74892833
_cell_angle_alpha   75.47072702
_cell_angle_beta   90.00000000
_cell_angle_gamma   90.00000000
_symmetry_Int_Tables_number   1
_chemical_formula_structural   UMoO6
_chemical_formula_sum   'U4 Mo4 O24'
_cell_volume   539.99872226
_cell_formula_units_Z   4
loop_
 _symmetry_equiv_pos_site_id
 _symmetry_equiv_pos_as_xyz
  1  'x, y, z'
loop_
 _atom_site_type_symbol
 _atom_site_label
 _atom_site_symmetry_multiplicity
 _atom_site_fract_x
 _atom_site_fract_y
 _atom_site_fract_z
 _atom_site_occupancy
  U  U0  1  0.67787700  0.16597400  0.64804600  1
  U  U1  1  0.17787700  0.83402600  0.85195400  1
  U  U2  1  0.32212300  0.83402600  0.35195400  1
  U  U3  1  0.82212300  0.16597400  0.14804600  1
  Mo  Mo4  1  0.41355300  0.29071400  0.89486700  1
  Mo  Mo5  1  0.58644700  0.70928600  0.10513300  1
  Mo  Mo6  1  0.08644700  0.29071400  0.39486700  1
  Mo  Mo7  1  0.91355300  0.70928600  0.60513300  1
  O  O8  1  0.31263800  0.52529600  0.89420600  1
  O  O9  1  0.95345900  0.07584000  0.71932800  1
  O  O10  1  0.60457200  0.75762600  0.41392200  1
  O  O11  1  0.57610900  0.30379000  0.78116800  1
  O  O12  1  0.11366500  0.79965500  0.50125700  1
  O  O13  1  0.45345900  0.92416000  0.78067200  1
  O  O14  1  0.54654100  0.07584000  0.21932800  1
  O  O15  1  0.10457200  0.24237400  0.08607800  1
  O  O16  1  0.83139000  0.86862500  0.10775500  1
  O  O17  1  0.18736200  0.52529600  0.39420600  1
  O  O18  1  0.04654100  0.92416000  0.28067200  1
  O  O19  1  0.92389100  0.30379000  0.28116800  1
  O  O20  1  0.16861000  0.13137500  0.89224500  1
  O  O21  1  0.89542800  0.75762600  0.91392200  1
  O  O22  1  0.61366500  0.20034500  0.99874300  1
  O  O23  1  0.42389100  0.69621000  0.21883200  1
  O  O24  1  0.39542800  0.24237400  0.58607800  1
  O  O25  1  0.66861000  0.86862500  0.60775500  1
  O  O26  1  0.38633500  0.79965500  0.00125700  1
  O  O27  1  0.88633500  0.20034500  0.49874300  1
  O  O28  1  0.07610900  0.69621000  0.71883200  1
  O  O29  1  0.81263800  0.47470400  0.60579400  1
  O  O30  1  0.33139000  0.13137500  0.39224500  1
  O  O31  1  0.68736200  0.47470400  0.10579400  1
