# generated using pymatgen
data_LaVO4
_symmetry_space_group_name_H-M   'P 1'
_cell_length_a   7.35327200
_cell_length_b   6.80427500
_cell_length_c   8.46282561
_cell_angle_alpha   54.45538690
_cell_angle_beta   90.00000000
_cell_angle_gamma   90.00000000
_symmetry_Int_Tables_number   1
_chemical_formula_structural   LaVO4
_chemical_formula_sum   'La4 V4 O16'
_cell_volume   344.52640005
_cell_formula_units_Z   4
loop_
 _symmetry_equiv_pos_site_id
 _symmetry_equiv_pos_as_xyz
  1  'x, y, z'
loop_
 _atom_site_type_symbol
 _atom_site_label
 _atom_site_symmetry_multiplicity
 _atom_site_fract_x
 _atom_site_fract_y
 _atom_site_fract_z
 _atom_site_occupancy
  La  La0  1  0.65402700  0.17986900  0.22083500  1
  La  La1  1  0.15402700  0.82013100  0.27916500  1
  La  La2  1  0.34597300  0.82013100  0.77916500  1
  La  La3  1  0.84597300  0.17986900  0.72083500  1
  V  V4  1  0.66341700  0.68660100  0.19968600  1
  V  V5  1  0.16341700  0.31339900  0.30031400  1
  V  V6  1  0.33658300  0.31339900  0.80031400  1
  V  V7  1  0.83658300  0.68660100  0.69968600  1
  O  O8  1  0.71817100  0.38873000  0.38389500  1
  O  O9  1  0.21817100  0.61127000  0.11610500  1
  O  O10  1  0.28182900  0.61127000  0.61610500  1
  O  O11  1  0.78182900  0.38873000  0.88389500  1
  O  O12  1  0.60309500  0.65266500  0.01935500  1
  O  O13  1  0.10309500  0.34733500  0.48064500  1
  O  O14  1  0.39690500  0.34733500  0.98064500  1
  O  O15  1  0.89690500  0.65266500  0.51935500  1
  O  O16  1  0.00365400  0.82538700  0.75181000  1
  O  O17  1  0.50365400  0.17461300  0.74819000  1
  O  O18  1  0.99634600  0.17461300  0.24819000  1
  O  O19  1  0.49634600  0.82538700  0.25181000  1
  O  O20  1  0.65428700  0.88698300  0.61261400  1
  O  O21  1  0.15428700  0.11301700  0.88738600  1
  O  O22  1  0.34571300  0.11301700  0.38738600  1
  O  O23  1  0.84571300  0.88698300  0.11261400  1
