# generated using pymatgen
data_WO3
_symmetry_space_group_name_H-M   'P 1'
_cell_length_a   5.35897700
_cell_length_b   5.41479800
_cell_length_c   7.72494136
_cell_angle_alpha   89.08578064
_cell_angle_beta   90.00000000
_cell_angle_gamma   90.00000000
_symmetry_Int_Tables_number   1
_chemical_formula_structural   WO3
_chemical_formula_sum   'W4 O12'
_cell_volume   224.13209807
_cell_formula_units_Z   4
loop_
 _symmetry_equiv_pos_site_id
 _symmetry_equiv_pos_as_xyz
  1  'x, y, z'
loop_
 _atom_site_type_symbol
 _atom_site_label
 _atom_site_symmetry_multiplicity
 _atom_site_fract_x
 _atom_site_fract_y
 _atom_site_fract_z
 _atom_site_occupancy
  W  W0  1  0.75601100  0.25118800  0.23031300  1
  W  W1  1  0.25601100  0.74881200  0.26968700  1
  W  W2  1  0.24398900  0.74881200  0.76968700  1
  W  W3  1  0.74398900  0.25118800  0.73031300  1
  O  O4  1  0.52812800  0.52983400  0.72336900  1
  O  O5  1  0.19653700  0.74943500  0.50445300  1
  O  O6  1  0.47187200  0.47016600  0.27663100  1
  O  O7  1  0.52831700  0.97306800  0.27671200  1
  O  O8  1  0.30346300  0.74943500  0.00445300  1
  O  O9  1  0.47168300  0.02693200  0.72328800  1
  O  O10  1  0.97187200  0.52983400  0.22336900  1
  O  O11  1  0.02831700  0.02693200  0.22328800  1
  O  O12  1  0.97168300  0.97306800  0.77671200  1
  O  O13  1  0.02812800  0.47016600  0.77663100  1
  O  O14  1  0.80346300  0.25056500  0.49554700  1
  O  O15  1  0.69653700  0.25056500  0.99554700  1
