# generated using pymatgen
data_BaMnCO3F2
_symmetry_space_group_name_H-M   'P 1'
_cell_length_a   4.97843200
_cell_length_b   4.97843100
_cell_length_c   10.15015700
_cell_angle_alpha   90.00000000
_cell_angle_beta   90.00000000
_cell_angle_gamma   119.99999339
_symmetry_Int_Tables_number   1
_chemical_formula_structural   BaMnCO3F2
_chemical_formula_sum   'Ba2 Mn2 C2 O6 F4'
_cell_volume   217.86551439
_cell_formula_units_Z   2
loop_
 _symmetry_equiv_pos_site_id
 _symmetry_equiv_pos_as_xyz
  1  'x, y, z'
loop_
 _atom_site_type_symbol
 _atom_site_label
 _atom_site_symmetry_multiplicity
 _atom_site_fract_x
 _atom_site_fract_y
 _atom_site_fract_z
 _atom_site_occupancy
  Ba  Ba0  1  0.00000000  0.00000000  0.50000000  1
  Ba  Ba1  1  0.00000000  0.00000000  0.00000000  1
  Mn  Mn2  1  0.33333300  0.66666700  0.25000000  1
  Mn  Mn3  1  0.66666700  0.33333300  0.75000000  1
  C  C4  1  0.33333300  0.66666700  0.75000000  1
  C  C5  1  0.66666700  0.33333300  0.25000000  1
  O  O6  1  0.87322000  0.62592200  0.25000000  1
  O  O7  1  0.24729800  0.87322000  0.75000000  1
  O  O8  1  0.75270200  0.12678000  0.25000000  1
  O  O9  1  0.12678000  0.37407800  0.75000000  1
  O  O10  1  0.37407800  0.24729800  0.25000000  1
  O  O11  1  0.62592200  0.75270200  0.75000000  1
  F  F12  1  0.33333300  0.66666700  0.45490300  1
  F  F13  1  0.66666700  0.33333300  0.95490300  1
  F  F14  1  0.33333300  0.66666700  0.04509700  1
  F  F15  1  0.66666700  0.33333300  0.54509700  1
