# generated using pymatgen
data_BaCoO2
_symmetry_space_group_name_H-M   'P 1'
_cell_length_a   5.91432191
_cell_length_b   5.91432191
_cell_length_c   6.89389200
_cell_angle_alpha   90.00000000
_cell_angle_beta   90.00000000
_cell_angle_gamma   119.99999905
_symmetry_Int_Tables_number   1
_chemical_formula_structural   BaCoO2
_chemical_formula_sum   'Ba3 Co3 O6'
_cell_volume   208.83583834
_cell_formula_units_Z   3
loop_
 _symmetry_equiv_pos_site_id
 _symmetry_equiv_pos_as_xyz
  1  'x, y, z'
loop_
 _atom_site_type_symbol
 _atom_site_label
 _atom_site_symmetry_multiplicity
 _atom_site_fract_x
 _atom_site_fract_y
 _atom_site_fract_z
 _atom_site_occupancy
  Ba  Ba0  1  0.65329300  0.00000000  0.83333300  1
  Ba  Ba1  1  0.00000000  0.65329300  0.16666700  1
  Ba  Ba2  1  0.34670700  0.34670700  0.50000000  1
  Co  Co3  1  0.40124500  0.40124500  0.00000000  1
  Co  Co4  1  0.00000000  0.59875500  0.66666700  1
  Co  Co5  1  0.59875500  0.00000000  0.33333300  1
  O  O6  1  0.12804700  0.43078000  0.87088200  1
  O  O7  1  0.56922000  0.69726800  0.20421500  1
  O  O8  1  0.30273200  0.87195300  0.53754800  1
  O  O9  1  0.69726800  0.56922000  0.79578500  1
  O  O10  1  0.43078000  0.12804700  0.12911800  1
  O  O11  1  0.87195300  0.30273200  0.46245200  1
