# generated using pymatgen
data_K3NaCr2O8
_symmetry_space_group_name_H-M   'P 1'
_cell_length_a   5.95783658
_cell_length_b   5.95783658
_cell_length_c   7.63487800
_cell_angle_alpha   90.00000000
_cell_angle_beta   90.00000000
_cell_angle_gamma   120.00000647
_symmetry_Int_Tables_number   1
_chemical_formula_structural   K3NaCr2O8
_chemical_formula_sum   'K3 Na1 Cr2 O8'
_cell_volume   234.69826476
_cell_formula_units_Z   1
loop_
 _symmetry_equiv_pos_site_id
 _symmetry_equiv_pos_as_xyz
  1  'x, y, z'
loop_
 _atom_site_type_symbol
 _atom_site_label
 _atom_site_symmetry_multiplicity
 _atom_site_fract_x
 _atom_site_fract_y
 _atom_site_fract_z
 _atom_site_occupancy
  K  K0  1  0.00000000  0.00000000  0.50000000  1
  K  K1  1  0.66666700  0.33333300  0.16775600  1
  K  K2  1  0.33333300  0.66666700  0.83224400  1
  Na  Na3  1  0.00000000  0.00000000  0.00000000  1
  Cr  Cr4  1  0.66666700  0.33333300  0.72646300  1
  Cr  Cr5  1  0.33333300  0.66666700  0.27353700  1
  O  O6  1  0.36255600  0.18127800  0.80311800  1
  O  O7  1  0.81872200  0.18127800  0.80311800  1
  O  O8  1  0.81872200  0.63744400  0.80311800  1
  O  O9  1  0.18127800  0.81872200  0.19688200  1
  O  O10  1  0.63744400  0.81872200  0.19688200  1
  O  O11  1  0.18127800  0.36255600  0.19688200  1
  O  O12  1  0.33333300  0.66666700  0.48910200  1
  O  O13  1  0.66666700  0.33333300  0.51089800  1
