# generated using pymatgen
data_BaMnO3
_symmetry_space_group_name_H-M   'P 1'
_cell_length_a   10.05463223
_cell_length_b   10.05463223
_cell_length_c   5.04545600
_cell_angle_alpha   90.00000000
_cell_angle_beta   90.00000000
_cell_angle_gamma   120.00000149
_symmetry_Int_Tables_number   1
_chemical_formula_structural   BaMnO3
_chemical_formula_sum   'Ba6 Mn6 O18'
_cell_volume   441.73664461
_cell_formula_units_Z   6
loop_
 _symmetry_equiv_pos_site_id
 _symmetry_equiv_pos_as_xyz
  1  'x, y, z'
loop_
 _atom_site_type_symbol
 _atom_site_label
 _atom_site_symmetry_multiplicity
 _atom_site_fract_x
 _atom_site_fract_y
 _atom_site_fract_z
 _atom_site_occupancy
  Ba  Ba0  1  0.66600000  0.66600000  0.73754700  1
  Ba  Ba1  1  0.00000000  0.66600000  0.23754700  1
  Ba  Ba2  1  0.66600000  0.00000000  0.23754700  1
  Ba  Ba3  1  0.33400000  0.00000000  0.73754700  1
  Ba  Ba4  1  0.00000000  0.33400000  0.73754700  1
  Ba  Ba5  1  0.33400000  0.33400000  0.23754700  1
  Mn  Mn6  1  0.33333300  0.66666700  0.90954500  1
  Mn  Mn7  1  0.66666700  0.33333300  0.40954500  1
  Mn  Mn8  1  0.33333300  0.66666700  0.40954500  1
  Mn  Mn9  1  0.66666700  0.33333300  0.90954500  1
  Mn  Mn10  1  0.00000000  0.00000000  0.57667700  1
  Mn  Mn11  1  0.00000000  0.00000000  0.07667700  1
  O  O12  1  0.33297600  0.81359300  0.15667900  1
  O  O13  1  0.18640700  0.51938300  0.15667900  1
  O  O14  1  0.48061700  0.66702400  0.15667900  1
  O  O15  1  0.51938300  0.33297600  0.65667900  1
  O  O16  1  0.66702400  0.18640700  0.65667900  1
  O  O17  1  0.81359300  0.48061700  0.65667900  1
  O  O18  1  0.33297600  0.51938300  0.65667900  1
  O  O19  1  0.81359300  0.33297600  0.15667900  1
  O  O20  1  0.51938300  0.18640700  0.15667900  1
  O  O21  1  0.48061700  0.81359300  0.65667900  1
  O  O22  1  0.18640700  0.66702400  0.65667900  1
  O  O23  1  0.66702400  0.48061700  0.15667900  1
  O  O24  1  0.00000000  0.14711600  0.32984000  1
  O  O25  1  0.85288400  0.00000000  0.82984000  1
  O  O26  1  0.14711600  0.14711600  0.82984000  1
  O  O27  1  0.85288400  0.85288400  0.32984000  1
  O  O28  1  0.14711600  0.00000000  0.32984000  1
  O  O29  1  0.00000000  0.85288400  0.82984000  1
