# generated using pymatgen
data_VSO5
_symmetry_space_group_name_H-M   'P 1'
_cell_length_a   4.18995200
_cell_length_b   9.01635675
_cell_length_c   9.01635675
_cell_angle_alpha   90.00000000
_cell_angle_beta   90.00000000
_cell_angle_gamma   90.00000000
_symmetry_Int_Tables_number   1
_chemical_formula_structural   VSO5
_chemical_formula_sum   'V4 S4 O20'
_cell_volume   340.62084500
_cell_formula_units_Z   4
loop_
 _symmetry_equiv_pos_site_id
 _symmetry_equiv_pos_as_xyz
  1  'x, y, z'
loop_
 _atom_site_type_symbol
 _atom_site_label
 _atom_site_symmetry_multiplicity
 _atom_site_fract_x
 _atom_site_fract_y
 _atom_site_fract_z
 _atom_site_occupancy
  V  V0  1  0.38444500  0.25000000  0.50000000  1
  V  V1  1  0.61555500  0.75000000  0.50000000  1
  V  V2  1  0.38444500  0.75000000  0.00000000  1
  V  V3  1  0.61555500  0.25000000  0.00000000  1
  S  S4  1  0.50000000  0.50000000  0.75000000  1
  S  S5  1  0.50000000  0.00000000  0.25000000  1
  S  S6  1  0.50000000  0.50000000  0.25000000  1
  S  S7  1  0.50000000  0.00000000  0.75000000  1
  O  O8  1  0.22573500  0.25000000  0.00000000  1
  O  O9  1  0.22573500  0.75000000  0.50000000  1
  O  O10  1  0.77426500  0.75000000  0.00000000  1
  O  O11  1  0.77426500  0.25000000  0.50000000  1
  O  O12  1  0.70969500  0.60186600  0.33532000  1
  O  O13  1  0.70969500  0.10186600  0.83532000  1
  O  O14  1  0.70969500  0.41468000  0.85186600  1
  O  O15  1  0.70969500  0.91468000  0.35186600  1
  O  O16  1  0.70969500  0.58532000  0.64813400  1
  O  O17  1  0.70969500  0.08532000  0.14813400  1
  O  O18  1  0.70969500  0.39813400  0.16468000  1
  O  O19  1  0.70969500  0.89813400  0.66468000  1
  O  O20  1  0.29030500  0.60186600  0.83532000  1
  O  O21  1  0.29030500  0.10186600  0.33532000  1
  O  O22  1  0.29030500  0.41468000  0.35186600  1
  O  O23  1  0.29030500  0.91468000  0.85186600  1
  O  O24  1  0.29030500  0.58532000  0.14813400  1
  O  O25  1  0.29030500  0.08532000  0.64813400  1
  O  O26  1  0.29030500  0.39813400  0.66468000  1
  O  O27  1  0.29030500  0.89813400  0.16468000  1
