# generated using pymatgen
data_Mn2As2O7
_symmetry_space_group_name_H-M   'P 1'
_cell_length_a   5.63042947
_cell_length_b   5.63042879
_cell_length_c   9.80561262
_cell_angle_alpha   97.72538509
_cell_angle_beta   97.72538563
_cell_angle_gamma   105.06519242
_symmetry_Int_Tables_number   1
_chemical_formula_structural   Mn2As2O7
_chemical_formula_sum   'Mn4 As4 O14'
_cell_volume   292.75021693
_cell_formula_units_Z   2
loop_
 _symmetry_equiv_pos_site_id
 _symmetry_equiv_pos_as_xyz
  1  'x, y, z'
loop_
 _atom_site_type_symbol
 _atom_site_label
 _atom_site_symmetry_multiplicity
 _atom_site_fract_x
 _atom_site_fract_y
 _atom_site_fract_z
 _atom_site_occupancy
  Mn  Mn0  1  0.69201200  0.30798800  0.75000000  1
  Mn  Mn1  1  0.30798800  0.69201200  0.25000000  1
  Mn  Mn2  1  0.69201200  0.30798800  0.25000000  1
  Mn  Mn3  1  0.30798800  0.69201200  0.75000000  1
  As  As4  1  0.76828100  0.76828100  0.04835200  1
  As  As5  1  0.76828100  0.76828100  0.54835200  1
  As  As6  1  0.23171900  0.23171900  0.45164800  1
  As  As7  1  0.23171900  0.23171900  0.95164800  1
  O  O8  1  0.00000000  0.00000000  0.00000000  1
  O  O9  1  0.00000000  0.00000000  0.50000000  1
  O  O10  1  0.60301800  0.60301800  0.38934400  1
  O  O11  1  0.60301800  0.60301800  0.88934400  1
  O  O12  1  0.39698200  0.39698200  0.11065600  1
  O  O13  1  0.39698200  0.39698200  0.61065600  1
  O  O14  1  0.92537500  0.60589000  0.14380900  1
  O  O15  1  0.92537500  0.60589000  0.64380900  1
  O  O16  1  0.39411000  0.07462500  0.35619100  1
  O  O17  1  0.39411000  0.07462500  0.85619100  1
  O  O18  1  0.07462500  0.39411000  0.35619100  1
  O  O19  1  0.07462500  0.39411000  0.85619100  1
  O  O20  1  0.60589000  0.92537500  0.14380900  1
  O  O21  1  0.60589000  0.92537500  0.64380900  1
