# generated using pymatgen
data_TiSCl
_symmetry_space_group_name_H-M   'P 1'
_cell_length_a   3.43905200
_cell_length_b   4.83423900
_cell_length_c   7.57864200
_cell_angle_alpha   90.00000000
_cell_angle_beta   90.00000000
_cell_angle_gamma   90.00000000
_symmetry_Int_Tables_number   1
_chemical_formula_structural   TiSCl
_chemical_formula_sum   'Ti2 S2 Cl2'
_cell_volume   125.99643368
_cell_formula_units_Z   2
loop_
 _symmetry_equiv_pos_site_id
 _symmetry_equiv_pos_as_xyz
  1  'x, y, z'
loop_
 _atom_site_type_symbol
 _atom_site_label
 _atom_site_symmetry_multiplicity
 _atom_site_fract_x
 _atom_site_fract_y
 _atom_site_fract_z
 _atom_site_occupancy
  Ti  Ti0  1  0.50000000  0.00000000  0.39622300  1
  Ti  Ti1  1  0.00000000  0.50000000  0.60377700  1
  S  S2  1  0.00000000  0.00000000  0.62543800  1
  S  S3  1  0.50000000  0.50000000  0.37456200  1
  Cl  Cl4  1  0.00000000  0.00000000  0.16459000  1
  Cl  Cl5  1  0.50000000  0.50000000  0.83541000  1
