# generated using pymatgen
data_Na4Fe2O5
_symmetry_space_group_name_H-M   'P 1'
_cell_length_a   5.77272600
_cell_length_b   9.25428300
_cell_length_c   13.12653545
_cell_angle_alpha   62.06640144
_cell_angle_beta   90.00000000
_cell_angle_gamma   90.00000000
_symmetry_Int_Tables_number   1
_chemical_formula_structural   Na4Fe2O5
_chemical_formula_sum   'Na16 Fe8 O20'
_cell_volume   619.54949344
_cell_formula_units_Z   4
loop_
 _symmetry_equiv_pos_site_id
 _symmetry_equiv_pos_as_xyz
  1  'x, y, z'
loop_
 _atom_site_type_symbol
 _atom_site_label
 _atom_site_symmetry_multiplicity
 _atom_site_fract_x
 _atom_site_fract_y
 _atom_site_fract_z
 _atom_site_occupancy
  Na  Na0  1  0.92674600  0.19447000  0.96709900  1
  Na  Na1  1  0.42674600  0.80553000  0.53290100  1
  Na  Na2  1  0.11421600  0.60629200  0.87800100  1
  Na  Na3  1  0.57325400  0.19447000  0.46709900  1
  Na  Na4  1  0.41068200  0.29762300  0.03781700  1
  Na  Na5  1  0.91068200  0.70237700  0.46218300  1
  Na  Na6  1  0.58931800  0.70237700  0.96218300  1
  Na  Na7  1  0.08931800  0.29762300  0.53781700  1
  Na  Na8  1  0.61943900  0.87032400  0.13316600  1
  Na  Na9  1  0.11943900  0.12967600  0.36683400  1
  Na  Na10  1  0.38056100  0.12967600  0.86683400  1
  Na  Na11  1  0.88056100  0.87032400  0.63316600  1
  Na  Na12  1  0.38578400  0.60629200  0.37800100  1
  Na  Na13  1  0.88578400  0.39370800  0.12199900  1
  Na  Na14  1  0.61421600  0.39370800  0.62199900  1
  Na  Na15  1  0.07325400  0.80553000  0.03290100  1
  Fe  Fe16  1  0.65805300  0.04410900  0.29664800  1
  Fe  Fe17  1  0.34194700  0.95589100  0.70335200  1
  Fe  Fe18  1  0.84194700  0.04410900  0.79664800  1
  Fe  Fe19  1  0.61459200  0.54259800  0.80051800  1
  Fe  Fe20  1  0.11459200  0.45740200  0.69948200  1
  Fe  Fe21  1  0.38540800  0.45740200  0.19948200  1
  Fe  Fe22  1  0.88540800  0.54259800  0.30051800  1
  Fe  Fe23  1  0.15805300  0.95589100  0.20335200  1
  O  O24  1  0.93333600  0.11209200  0.20032700  1
  O  O25  1  0.32946300  0.41949400  0.82327700  1
  O  O26  1  0.17053700  0.41949400  0.32327700  1
  O  O27  1  0.67053700  0.58050600  0.17672300  1
  O  O28  1  0.25972800  0.03137600  0.05304000  1
  O  O29  1  0.75972800  0.96862400  0.44696000  1
  O  O30  1  0.74027200  0.96862400  0.94696000  1
  O  O31  1  0.24027200  0.03137600  0.55304000  1
  O  O32  1  0.76136800  0.44661900  0.94265100  1
  O  O33  1  0.26136800  0.55338100  0.55734900  1
  O  O34  1  0.23863200  0.55338100  0.05734900  1
  O  O35  1  0.73863200  0.44661900  0.44265100  1
  O  O36  1  0.98127800  0.75897900  0.26120100  1
  O  O37  1  0.82946300  0.58050600  0.67672300  1
  O  O38  1  0.48127800  0.24102100  0.23879900  1
  O  O39  1  0.01872200  0.24102100  0.73879900  1
  O  O40  1  0.43333600  0.88790800  0.29967300  1
  O  O41  1  0.06666400  0.88790800  0.79967300  1
  O  O42  1  0.56666400  0.11209200  0.70032700  1
  O  O43  1  0.51872200  0.75897900  0.76120100  1
