# generated using pymatgen
data_CaCr(Si2O5)2
_symmetry_space_group_name_H-M   'P 1'
_cell_length_a   7.47886000
_cell_length_b   7.47886000
_cell_length_c   15.39959900
_cell_angle_alpha   90.00000000
_cell_angle_beta   90.00000000
_cell_angle_gamma   90.00000000
_symmetry_Int_Tables_number   1
_chemical_formula_structural   CaCr(Si2O5)2
_chemical_formula_sum   'Ca4 Cr4 Si16 O40'
_cell_volume   861.35111298
_cell_formula_units_Z   4
loop_
 _symmetry_equiv_pos_site_id
 _symmetry_equiv_pos_as_xyz
  1  'x, y, z'
loop_
 _atom_site_type_symbol
 _atom_site_label
 _atom_site_symmetry_multiplicity
 _atom_site_fract_x
 _atom_site_fract_y
 _atom_site_fract_z
 _atom_site_occupancy
  Ca  Ca0  1  0.50000000  0.50000000  0.00000000  1
  Ca  Ca1  1  0.00000000  0.00000000  0.00000000  1
  Ca  Ca2  1  0.00000000  0.00000000  0.50000000  1
  Ca  Ca3  1  0.50000000  0.50000000  0.50000000  1
  Cr  Cr4  1  0.50000000  0.00000000  0.08059700  1
  Cr  Cr5  1  0.00000000  0.50000000  0.41940300  1
  Cr  Cr6  1  0.00000000  0.50000000  0.91940300  1
  Cr  Cr7  1  0.50000000  0.00000000  0.58059700  1
  Si  Si8  1  0.17023200  0.25198200  0.64831200  1
  Si  Si9  1  0.82976800  0.74801800  0.64831200  1
  Si  Si10  1  0.25198200  0.17023200  0.85168800  1
  Si  Si11  1  0.75198200  0.32976800  0.64831200  1
  Si  Si12  1  0.24801800  0.67023200  0.64831200  1
  Si  Si13  1  0.32976800  0.75198200  0.85168800  1
  Si  Si14  1  0.67023200  0.24801800  0.85168800  1
  Si  Si15  1  0.74801800  0.82976800  0.85168800  1
  Si  Si16  1  0.32976800  0.24801800  0.35168800  1
  Si  Si17  1  0.67023200  0.75198200  0.35168800  1
  Si  Si18  1  0.24801800  0.32976800  0.14831200  1
  Si  Si19  1  0.74801800  0.17023200  0.35168800  1
  Si  Si20  1  0.25198200  0.82976800  0.35168800  1
  Si  Si21  1  0.17023200  0.74801800  0.14831200  1
  Si  Si22  1  0.82976800  0.25198200  0.14831200  1
  Si  Si23  1  0.75198200  0.67023200  0.14831200  1
  O  O24  1  0.24776800  0.10480000  0.58234800  1
  O  O25  1  0.75223200  0.89520000  0.58234800  1
  O  O26  1  0.10480000  0.24776800  0.91765200  1
  O  O27  1  0.60480000  0.25223200  0.58234800  1
  O  O28  1  0.39520000  0.74776800  0.58234800  1
  O  O29  1  0.25223200  0.60480000  0.91765200  1
  O  O30  1  0.74776800  0.39520000  0.91765200  1
  O  O31  1  0.89520000  0.75223200  0.91765200  1
  O  O32  1  0.25223200  0.39520000  0.41765200  1
  O  O33  1  0.74776800  0.60480000  0.41765200  1
  O  O34  1  0.39520000  0.25223200  0.08234800  1
  O  O35  1  0.89520000  0.24776800  0.41765200  1
  O  O36  1  0.10480000  0.75223200  0.41765200  1
  O  O37  1  0.24776800  0.89520000  0.08234800  1
  O  O38  1  0.75223200  0.10480000  0.08234800  1
  O  O39  1  0.25155700  0.04666400  0.37167700  1
  O  O40  1  0.60480000  0.74776800  0.08234800  1
  O  O41  1  0.75155700  0.54666400  0.62832300  1
  O  O42  1  0.45333600  0.24844300  0.87167700  1
  O  O43  1  0.95333600  0.25155700  0.62832300  1
  O  O44  1  0.04666400  0.74844300  0.62832300  1
  O  O45  1  0.25155700  0.95333600  0.87167700  1
  O  O46  1  0.74844300  0.04666400  0.87167700  1
  O  O47  1  0.54666400  0.75155700  0.87167700  1
  O  O48  1  0.70634700  0.70634700  0.25000000  1
  O  O49  1  0.79365300  0.20634700  0.25000000  1
  O  O50  1  0.20634700  0.79365300  0.25000000  1
  O  O51  1  0.29365300  0.29365300  0.25000000  1
  O  O52  1  0.79365300  0.79365300  0.75000000  1
  O  O53  1  0.70634700  0.29365300  0.75000000  1
  O  O54  1  0.29365300  0.70634700  0.75000000  1
  O  O55  1  0.20634700  0.20634700  0.75000000  1
  O  O56  1  0.95333600  0.74844300  0.12832300  1
  O  O57  1  0.75155700  0.45333600  0.12832300  1
  O  O58  1  0.24844300  0.54666400  0.12832300  1
  O  O59  1  0.45333600  0.75155700  0.37167700  1
  O  O60  1  0.54666400  0.24844300  0.37167700  1
  O  O61  1  0.04666400  0.25155700  0.12832300  1
  O  O62  1  0.74844300  0.95333600  0.37167700  1
  O  O63  1  0.24844300  0.45333600  0.62832300  1
