# generated using pymatgen
data_Na5Tb(WO4)4
_symmetry_space_group_name_H-M   'P 1'
_cell_length_a   10.12647082
_cell_length_b   10.12647082
_cell_length_c   10.12647082
_cell_angle_alpha   109.21157610
_cell_angle_beta   109.21157610
_cell_angle_gamma   109.99176711
_symmetry_Int_Tables_number   1
_chemical_formula_structural   Na5Tb(WO4)4
_chemical_formula_sum   'Na10 Tb2 W8 O32'
_cell_volume   799.32894861
_cell_formula_units_Z   2
loop_
 _symmetry_equiv_pos_site_id
 _symmetry_equiv_pos_as_xyz
  1  'x, y, z'
loop_
 _atom_site_type_symbol
 _atom_site_label
 _atom_site_symmetry_multiplicity
 _atom_site_fract_x
 _atom_site_fract_y
 _atom_site_fract_z
 _atom_site_occupancy
  Tb  Tb0  1  0.62500000  0.87500000  0.25000000  1
  Tb  Tb1  1  0.37500000  0.12500000  0.75000000  1
  Na  Na2  1  0.20364100  0.78015000  0.16736700  1
  Na  Na3  1  0.28015000  0.11278200  0.07650900  1
  Na  Na4  1  0.03627300  0.70364100  0.42349100  1
  Na  Na5  1  0.61278200  0.53627300  0.33263300  1
  Na  Na6  1  0.79635900  0.21985000  0.83263300  1
  Na  Na7  1  0.71985000  0.88721800  0.92349100  1
  Na  Na8  1  0.96372700  0.29635900  0.57650900  1
  Na  Na9  1  0.38721800  0.46372700  0.66736700  1
  Na  Na10  1  0.12500000  0.37500000  0.25000000  1
  Na  Na11  1  0.87500000  0.62500000  0.75000000  1
  W  W12  1  0.45461000  0.78986700  0.52707400  1
  W  W13  1  0.28986700  0.76279300  0.83525700  1
  W  W14  1  0.92753600  0.95461000  0.66474300  1
  W  W15  1  0.26279300  0.42753600  0.97292600  1
  W  W16  1  0.54539000  0.21013300  0.47292600  1
  W  W17  1  0.71013300  0.23720700  0.16474300  1
  W  W18  1  0.07246400  0.04539000  0.33525700  1
  W  W19  1  0.73720700  0.57246400  0.02707400  1
  O  O20  1  0.51997700  0.00238600  0.65188900  1
  O  O21  1  0.50238600  0.85049700  0.98240900  1
  O  O22  1  0.86808800  0.01997700  0.51759100  1
  O  O23  1  0.35049700  0.36808800  0.84811100  1
  O  O24  1  0.48002300  0.99761400  0.34811100  1
  O  O25  1  0.49761400  0.14950300  0.01759100  1
  O  O26  1  0.13191200  0.98002300  0.48240900  1
  O  O27  1  0.64950300  0.63191200  0.15188900  1
  O  O28  1  0.56913300  0.76778000  0.42465100  1
  O  O29  1  0.26778000  0.84312900  0.69864700  1
  O  O30  1  0.14448200  0.06913300  0.80135300  1
  O  O31  1  0.34312900  0.64448200  0.07534900  1
  O  O32  1  0.43086700  0.23222000  0.57534900  1
  O  O33  1  0.73222000  0.15687100  0.30135300  1
  O  O34  1  0.85551800  0.93086700  0.19864700  1
  O  O35  1  0.65687100  0.35551800  0.92465100  1
  O  O36  1  0.24470900  0.67095900  0.37245300  1
  O  O37  1  0.17095900  0.79850600  0.92625000  1
  O  O38  1  0.87225600  0.74470900  0.57375000  1
  O  O39  1  0.29850600  0.37225600  0.12754700  1
  O  O40  1  0.95090700  0.66362900  0.14690900  1
  O  O41  1  0.16362900  0.01671900  0.21272100  1
  O  O42  1  0.80399800  0.45090700  0.28727900  1
  O  O43  1  0.51671900  0.30399800  0.35309100  1
  O  O44  1  0.04909300  0.33637100  0.85309100  1
  O  O45  1  0.83637100  0.98328100  0.78727900  1
  O  O46  1  0.19600200  0.54909300  0.71272100  1
  O  O47  1  0.48328100  0.69600200  0.64690900  1
  O  O48  1  0.70149400  0.62774400  0.87245300  1
  O  O49  1  0.12774400  0.25529100  0.42625000  1
  O  O50  1  0.82904100  0.20149400  0.07375000  1
  O  O51  1  0.75529100  0.32904100  0.62754700  1
