# generated using pymatgen
data_YCo(BO2)5
_symmetry_space_group_name_H-M   'P 1'
_cell_length_a   7.66340900
_cell_length_b   8.64072400
_cell_length_c   12.39631575
_cell_angle_alpha   49.50460158
_cell_angle_beta   90.00000000
_cell_angle_gamma   90.00000000
_symmetry_Int_Tables_number   1
_chemical_formula_structural   YCo(BO2)5
_chemical_formula_sum   'Y4 Co4 B20 O40'
_cell_volume   624.22343699
_cell_formula_units_Z   4
loop_
 _symmetry_equiv_pos_site_id
 _symmetry_equiv_pos_as_xyz
  1  'x, y, z'
loop_
 _atom_site_type_symbol
 _atom_site_label
 _atom_site_symmetry_multiplicity
 _atom_site_fract_x
 _atom_site_fract_y
 _atom_site_fract_z
 _atom_site_occupancy
  Y  Y0  1  0.31523400  0.94243200  0.74222000  1
  Y  Y1  1  0.81523400  0.05756800  0.75778000  1
  Y  Y2  1  0.68476600  0.05756800  0.25778000  1
  Y  Y3  1  0.18476600  0.94243200  0.24222000  1
  Co  Co4  1  0.09693500  0.47186700  0.62957300  1
  Co  Co5  1  0.59693500  0.52813300  0.87042700  1
  Co  Co6  1  0.90306500  0.52813300  0.37042700  1
  Co  Co7  1  0.40306500  0.47186700  0.12957300  1
  B  B8  1  0.18716900  0.52246600  0.91090900  1
  B  B9  1  0.68716900  0.47753400  0.58909100  1
  B  B10  1  0.81283100  0.47753400  0.08909100  1
  B  B11  1  0.31283100  0.52246600  0.41090900  1
  B  B12  1  0.89806700  0.84856800  0.49076600  1
  B  B13  1  0.39806700  0.15143200  0.00923400  1
  B  B14  1  0.10193300  0.15143200  0.50923400  1
  B  B15  1  0.60193300  0.84856800  0.99076600  1
  B  B16  1  0.96790000  0.27896900  0.94293500  1
  B  B17  1  0.46790000  0.72103100  0.55706500  1
  B  B18  1  0.03210000  0.72103100  0.05706500  1
  B  B19  1  0.53210000  0.27896900  0.44293500  1
  B  B20  1  0.17525900  0.08521000  0.89753800  1
  B  B21  1  0.67525900  0.91479000  0.60246200  1
  B  B22  1  0.82474100  0.91479000  0.10246200  1
  B  B23  1  0.32474100  0.08521000  0.39753800  1
  B  B24  1  0.92671500  0.66210600  0.75298200  1
  B  B25  1  0.42671500  0.33789400  0.74701800  1
  B  B26  1  0.07328500  0.33789400  0.24701800  1
  B  B27  1  0.57328500  0.66210600  0.25298200  1
  O  O28  1  0.05496000  0.11335400  0.62961300  1
  O  O29  1  0.55496000  0.88664600  0.87038700  1
  O  O30  1  0.94504000  0.88664600  0.37038700  1
  O  O31  1  0.44504000  0.11335400  0.12961300  1
  O  O32  1  0.84703400  0.42235900  0.57101600  1
  O  O33  1  0.34703400  0.57764100  0.92898400  1
  O  O34  1  0.15296600  0.57764100  0.42898400  1
  O  O35  1  0.65296600  0.42235900  0.07101600  1
  O  O36  1  0.12395600  0.32844100  0.99023100  1
  O  O37  1  0.62395600  0.67155900  0.50976900  1
  O  O38  1  0.87604400  0.67155900  0.00976900  1
  O  O39  1  0.37604400  0.32844100  0.49023100  1
  O  O40  1  0.26850000  0.02578700  0.02286800  1
  O  O41  1  0.76850000  0.97421300  0.47713200  1
  O  O42  1  0.73150000  0.97421300  0.97713200  1
  O  O43  1  0.23150000  0.02578700  0.52286800  1
  O  O44  1  0.11017400  0.90358100  0.92144200  1
  O  O45  1  0.61017400  0.09641900  0.57855800  1
  O  O46  1  0.88982600  0.09641900  0.07855800  1
  O  O47  1  0.38982600  0.90358100  0.42144200  1
  O  O48  1  0.02974000  0.23282500  0.85121900  1
  O  O49  1  0.52974000  0.76717500  0.64878100  1
  O  O50  1  0.97026000  0.76717500  0.14878100  1
  O  O51  1  0.47026000  0.23282500  0.35121900  1
  O  O52  1  0.85196200  0.45691800  0.85935100  1
  O  O53  1  0.35196200  0.54308200  0.64064900  1
  O  O54  1  0.14803800  0.54308200  0.14064900  1
  O  O55  1  0.64803800  0.45691800  0.35935100  1
  O  O56  1  0.09210200  0.68697300  0.80024600  1
  O  O57  1  0.59210200  0.31302700  0.69975400  1
  O  O58  1  0.90789800  0.31302700  0.19975400  1
  O  O59  1  0.40789800  0.68697300  0.30024600  1
  O  O60  1  0.96801900  0.69396100  0.62143400  1
  O  O61  1  0.46801900  0.30603900  0.87856600  1
  O  O62  1  0.03198100  0.30603900  0.37856600  1
  O  O63  1  0.53198100  0.69396100  0.12143400  1
  O  O64  1  0.79540700  0.80950100  0.72622800  1
  O  O65  1  0.29540700  0.19049900  0.77377200  1
  O  O66  1  0.20459300  0.19049900  0.27377200  1
  O  O67  1  0.70459300  0.80950100  0.22622800  1
