# generated using pymatgen
data_LaCo(BO2)5
_symmetry_space_group_name_H-M   'P 1'
_cell_length_a   7.67706300
_cell_length_b   8.89029500
_cell_length_c   12.77161983
_cell_angle_alpha   48.40406843
_cell_angle_beta   90.00000000
_cell_angle_gamma   90.00000000
_symmetry_Int_Tables_number   1
_chemical_formula_structural   LaCo(BO2)5
_chemical_formula_sum   'La4 Co4 B20 O40'
_cell_volume   651.88199874
_cell_formula_units_Z   4
loop_
 _symmetry_equiv_pos_site_id
 _symmetry_equiv_pos_as_xyz
  1  'x, y, z'
loop_
 _atom_site_type_symbol
 _atom_site_label
 _atom_site_symmetry_multiplicity
 _atom_site_fract_x
 _atom_site_fract_y
 _atom_site_fract_z
 _atom_site_occupancy
  La  La0  1  0.31456100  0.94368600  0.73664300  1
  La  La1  1  0.81456100  0.05631400  0.76335700  1
  La  La2  1  0.68543900  0.05631400  0.26335700  1
  La  La3  1  0.18543900  0.94368600  0.23664300  1
  Co  Co4  1  0.09026000  0.47584200  0.62496000  1
  Co  Co5  1  0.59026000  0.52415800  0.87504000  1
  Co  Co6  1  0.90974000  0.52415800  0.37504000  1
  Co  Co7  1  0.40974000  0.47584200  0.12496000  1
  B  B8  1  0.18338900  0.50808000  0.91702700  1
  B  B9  1  0.68338900  0.49192000  0.58297300  1
  B  B10  1  0.81661100  0.49192000  0.08297300  1
  B  B11  1  0.31661100  0.50808000  0.41702700  1
  B  B12  1  0.90657400  0.84226000  0.50592900  1
  B  B13  1  0.40657400  0.15774000  0.99407100  1
  B  B14  1  0.09342600  0.15774000  0.49407100  1
  B  B15  1  0.59342600  0.84226000  0.00592900  1
  B  B16  1  0.96457800  0.26686400  0.94839800  1
  B  B17  1  0.46457800  0.73313600  0.55160200  1
  B  B18  1  0.03542200  0.73313600  0.05160200  1
  B  B19  1  0.53542200  0.26686400  0.44839800  1
  B  B20  1  0.17346900  0.09639400  0.89031300  1
  B  B21  1  0.67346900  0.90360600  0.60968700  1
  B  B22  1  0.82653100  0.90360600  0.10968700  1
  B  B23  1  0.32653100  0.09639400  0.39031300  1
  B  B24  1  0.91848600  0.64127800  0.76615200  1
  B  B25  1  0.41848600  0.35872200  0.73384800  1
  B  B26  1  0.08151400  0.35872200  0.23384800  1
  B  B27  1  0.58151400  0.64127800  0.26615200  1
  O  O28  1  0.03964000  0.11604200  0.61231900  1
  O  O29  1  0.53964000  0.88395800  0.88768100  1
  O  O30  1  0.96036000  0.88395800  0.38768100  1
  O  O31  1  0.46036000  0.11604200  0.11231900  1
  O  O32  1  0.84445400  0.44219300  0.56432900  1
  O  O33  1  0.34445400  0.55780700  0.93567100  1
  O  O34  1  0.15554600  0.55780700  0.43567100  1
  O  O35  1  0.65554600  0.44219300  0.06432900  1
  O  O36  1  0.12416700  0.31500400  0.99225700  1
  O  O37  1  0.62416700  0.68499600  0.50774300  1
  O  O38  1  0.87583300  0.68499600  0.00774300  1
  O  O39  1  0.37583300  0.31500400  0.49225700  1
  O  O40  1  0.28036800  0.03183400  0.00897000  1
  O  O41  1  0.78036800  0.96816600  0.49103000  1
  O  O42  1  0.71963200  0.96816600  0.99103000  1
  O  O43  1  0.21963200  0.03183400  0.50897000  1
  O  O44  1  0.10968900  0.91709400  0.91450900  1
  O  O45  1  0.60968900  0.08290600  0.58549100  1
  O  O46  1  0.89031100  0.08290600  0.08549100  1
  O  O47  1  0.39031100  0.91709400  0.41450900  1
  O  O48  1  0.02166700  0.22705100  0.85699800  1
  O  O49  1  0.52166700  0.77294900  0.64300200  1
  O  O50  1  0.97833300  0.77294900  0.14300200  1
  O  O51  1  0.47833300  0.22705100  0.35699800  1
  O  O52  1  0.84665100  0.43839200  0.87135500  1
  O  O53  1  0.34665100  0.56160800  0.62864500  1
  O  O54  1  0.15334900  0.56160800  0.12864500  1
  O  O55  1  0.65334900  0.43839200  0.37135500  1
  O  O56  1  0.08144300  0.67034400  0.81287400  1
  O  O57  1  0.58144300  0.32965600  0.68712600  1
  O  O58  1  0.91855700  0.32965600  0.18712600  1
  O  O59  1  0.41855700  0.67034400  0.31287400  1
  O  O60  1  0.96534900  0.67766800  0.63691700  1
  O  O61  1  0.46534900  0.32233200  0.86308300  1
  O  O62  1  0.03465100  0.32233200  0.36308300  1
  O  O63  1  0.53465100  0.67766800  0.13691700  1
  O  O64  1  0.77976400  0.78035600  0.74103800  1
  O  O65  1  0.27976400  0.21964400  0.75896200  1
  O  O66  1  0.22023600  0.21964400  0.25896200  1
  O  O67  1  0.72023600  0.78035600  0.24103800  1
