# generated using pymatgen
data_Na2V(PO4)2
_symmetry_space_group_name_H-M   'P 1'
_cell_length_a   13.62592300
_cell_length_b   6.37217900
_cell_length_c   7.82323490
_cell_angle_alpha   80.26495072
_cell_angle_beta   90.00000000
_cell_angle_gamma   90.00000000
_symmetry_Int_Tables_number   1
_chemical_formula_structural   Na2V(PO4)2
_chemical_formula_sum   'Na8 V4 P8 O32'
_cell_volume   669.48531846
_cell_formula_units_Z   4
loop_
 _symmetry_equiv_pos_site_id
 _symmetry_equiv_pos_as_xyz
  1  'x, y, z'
loop_
 _atom_site_type_symbol
 _atom_site_label
 _atom_site_symmetry_multiplicity
 _atom_site_fract_x
 _atom_site_fract_y
 _atom_site_fract_z
 _atom_site_occupancy
  Na  Na0  1  0.86787500  0.56191400  0.52929500  1
  Na  Na1  1  0.36787500  0.93808600  0.47070500  1
  Na  Na2  1  0.13212500  0.43808600  0.47070500  1
  Na  Na3  1  0.63212500  0.06191400  0.52929500  1
  Na  Na4  1  0.21181900  0.34058900  0.06425700  1
  Na  Na5  1  0.71181900  0.15941100  0.93574300  1
  Na  Na6  1  0.78818100  0.65941100  0.93574300  1
  Na  Na7  1  0.28818100  0.84058900  0.06425700  1
  V  V8  1  0.92603400  0.23081200  0.22787200  1
  V  V9  1  0.42603400  0.26918800  0.77212800  1
  V  V10  1  0.07396600  0.76918800  0.77212800  1
  V  V11  1  0.57396600  0.73081200  0.22787200  1
  P  P12  1  0.98155000  0.75000900  0.17325100  1
  P  P13  1  0.48155000  0.74999100  0.82674900  1
  P  P14  1  0.01845000  0.24999100  0.82674900  1
  P  P15  1  0.51845000  0.25000900  0.17325100  1
  P  P16  1  0.13307000  0.95881100  0.35888700  1
  P  P17  1  0.63307000  0.54118900  0.64111300  1
  P  P18  1  0.86693000  0.04118900  0.64111300  1
  P  P19  1  0.36693000  0.45881100  0.35888700  1
  O  O20  1  0.23373900  0.02481100  0.28686800  1
  O  O21  1  0.73373900  0.47518900  0.71313200  1
  O  O22  1  0.76626100  0.97518900  0.71313200  1
  O  O23  1  0.26626100  0.52481100  0.28686800  1
  O  O24  1  0.09154800  0.81493100  0.21830300  1
  O  O25  1  0.59154800  0.68506900  0.78169700  1
  O  O26  1  0.90845200  0.18506900  0.78169700  1
  O  O27  1  0.40845200  0.31493100  0.21830300  1
  O  O28  1  0.96482200  0.52808600  0.28337100  1
  O  O29  1  0.46482200  0.97191400  0.71662900  1
  O  O30  1  0.03517800  0.47191400  0.71662900  1
  O  O31  1  0.53517800  0.02808600  0.28337100  1
  O  O32  1  0.02329700  0.25517600  0.02085500  1
  O  O33  1  0.52329700  0.24482400  0.97914500  1
  O  O34  1  0.97670300  0.74482400  0.97914500  1
  O  O35  1  0.47670300  0.75517600  0.02085500  1
  O  O36  1  0.91066400  0.91142600  0.23117200  1
  O  O37  1  0.41066400  0.58857400  0.76882800  1
  O  O38  1  0.08933600  0.08857400  0.76882800  1
  O  O39  1  0.58933600  0.41142600  0.23117200  1
  O  O40  1  0.43715900  0.64594600  0.36007200  1
  O  O41  1  0.93715900  0.85405400  0.63992800  1
  O  O42  1  0.56284100  0.35405400  0.63992800  1
  O  O43  1  0.06284100  0.14594600  0.36007200  1
  O  O44  1  0.63735700  0.69540300  0.46680800  1
  O  O45  1  0.13735700  0.80459700  0.53319200  1
  O  O46  1  0.36264300  0.30459700  0.53319200  1
  O  O47  1  0.86264300  0.19540300  0.46680800  1
  O  O48  1  0.67211900  0.81421100  0.10884500  1
  O  O49  1  0.17211900  0.68578900  0.89115500  1
  O  O50  1  0.32788100  0.18578900  0.89115500  1
  O  O51  1  0.82788100  0.31421100  0.10884500  1
