# generated using pymatgen
data_Al2(WO4)3
_symmetry_space_group_name_H-M   'P 1'
_cell_length_a   9.22842900
_cell_length_b   9.30852100
_cell_length_c   12.90610200
_cell_angle_alpha   90.00000000
_cell_angle_beta   90.00000000
_cell_angle_gamma   90.00000000
_symmetry_Int_Tables_number   1
_chemical_formula_structural   Al2(WO4)3
_chemical_formula_sum   'Al8 W12 O48'
_cell_volume   1108.67320461
_cell_formula_units_Z   4
loop_
 _symmetry_equiv_pos_site_id
 _symmetry_equiv_pos_as_xyz
  1  'x, y, z'
loop_
 _atom_site_type_symbol
 _atom_site_label
 _atom_site_symmetry_multiplicity
 _atom_site_fract_x
 _atom_site_fract_y
 _atom_site_fract_z
 _atom_site_occupancy
  Al  Al0  1  0.24987400  0.46729100  0.38151100  1
  Al  Al1  1  0.24987400  0.03270900  0.61848900  1
  Al  Al2  1  0.25012600  0.96729100  0.11848900  1
  Al  Al3  1  0.25012600  0.53270900  0.88151100  1
  Al  Al4  1  0.75012600  0.53270900  0.61848900  1
  Al  Al5  1  0.75012600  0.96729100  0.38151100  1
  Al  Al6  1  0.74987400  0.03270900  0.88151100  1
  Al  Al7  1  0.74987400  0.46729100  0.11848900  1
  W  W8  1  0.97422200  0.25000000  0.50000000  1
  W  W9  1  0.52577800  0.75000000  0.00000000  1
  W  W10  1  0.02577800  0.75000000  0.50000000  1
  W  W11  1  0.47422200  0.25000000  0.00000000  1
  W  W12  1  0.39320800  0.11557500  0.35562500  1
  W  W13  1  0.39320800  0.38442500  0.64437500  1
  W  W14  1  0.10679200  0.61557500  0.14437500  1
  W  W15  1  0.10679200  0.88442500  0.85562500  1
  W  W16  1  0.60679200  0.88442500  0.64437500  1
  W  W17  1  0.60679200  0.61557500  0.35562500  1
  W  W18  1  0.89320800  0.38442500  0.85562500  1
  W  W19  1  0.89320800  0.11557500  0.14437500  1
  O  O20  1  0.85893300  0.30525000  0.16472500  1
  O  O21  1  0.85893300  0.19475000  0.83527500  1
  O  O22  1  0.64106700  0.80525000  0.33527500  1
  O  O23  1  0.64106700  0.69475000  0.66472500  1
  O  O24  1  0.14106700  0.69475000  0.83527500  1
  O  O25  1  0.14106700  0.80525000  0.16472500  1
  O  O26  1  0.35893300  0.19475000  0.66472500  1
  O  O27  1  0.35893300  0.30525000  0.33527500  1
  O  O28  1  0.81409700  0.06531300  0.02172900  1
  O  O29  1  0.81409700  0.43468700  0.97827100  1
  O  O30  1  0.68590300  0.56531300  0.47827100  1
  O  O31  1  0.68590300  0.93468700  0.52172900  1
  O  O32  1  0.18590300  0.93468700  0.97827100  1
  O  O33  1  0.18590300  0.56531300  0.02172900  1
  O  O34  1  0.31409700  0.43468700  0.52172900  1
  O  O35  1  0.31409700  0.06531300  0.47827100  1
  O  O36  1  0.41194100  0.65768500  0.90704600  1
  O  O37  1  0.58805900  0.34231500  0.09295400  1
  O  O38  1  0.91194100  0.84231500  0.40704600  1
  O  O39  1  0.91194100  0.65768500  0.59295400  1
  O  O40  1  0.08720000  0.08835200  0.13929200  1
  O  O41  1  0.08720000  0.41164800  0.86070800  1
  O  O42  1  0.41280000  0.58835200  0.36070800  1
  O  O43  1  0.41280000  0.91164800  0.63929200  1
  O  O44  1  0.91280000  0.91164800  0.86070800  1
  O  O45  1  0.91280000  0.58835200  0.13929200  1
  O  O46  1  0.58720000  0.41164800  0.63929200  1
  O  O47  1  0.58720000  0.08835200  0.36070800  1
  O  O48  1  0.36194400  0.12369900  0.06935700  1
  O  O49  1  0.36194400  0.37630100  0.93064300  1
  O  O50  1  0.13805600  0.62369900  0.43064300  1
  O  O51  1  0.13805600  0.87630100  0.56935700  1
  O  O52  1  0.63805600  0.87630100  0.93064300  1
  O  O53  1  0.63805600  0.62369900  0.06935700  1
  O  O54  1  0.86194400  0.37630100  0.56935700  1
  O  O55  1  0.86194400  0.12369900  0.43064300  1
  O  O56  1  0.31379800  0.00671700  0.25419700  1
  O  O57  1  0.31379800  0.49328300  0.74580300  1
  O  O58  1  0.18620200  0.50671700  0.24580300  1
  O  O59  1  0.18620200  0.99328300  0.75419700  1
  O  O60  1  0.68620200  0.99328300  0.74580300  1
  O  O61  1  0.68620200  0.50671700  0.25419700  1
  O  O62  1  0.81379800  0.49328300  0.75419700  1
  O  O63  1  0.81379800  0.00671700  0.24580300  1
  O  O64  1  0.08805900  0.34231500  0.40704600  1
  O  O65  1  0.08805900  0.15768500  0.59295400  1
  O  O66  1  0.41194100  0.84231500  0.09295400  1
  O  O67  1  0.58805900  0.15768500  0.90704600  1
