# generated using pymatgen
data_Sn5(S2Cl)2
_symmetry_space_group_name_H-M   'P 1'
_cell_length_a   5.88605000
_cell_length_b   5.97881000
_cell_length_c   18.03610400
_cell_angle_alpha   90.00000000
_cell_angle_beta   90.00000000
_cell_angle_gamma   90.00000000
_symmetry_Int_Tables_number   1
_chemical_formula_structural   Sn5(S2Cl)2
_chemical_formula_sum   'Sn10 S8 Cl4'
_cell_volume   634.71889942
_cell_formula_units_Z   2
loop_
 _symmetry_equiv_pos_site_id
 _symmetry_equiv_pos_as_xyz
  1  'x, y, z'
loop_
 _atom_site_type_symbol
 _atom_site_label
 _atom_site_symmetry_multiplicity
 _atom_site_fract_x
 _atom_site_fract_y
 _atom_site_fract_z
 _atom_site_occupancy
  Sn  Sn0  1  0.25722900  0.33258900  0.57471000  1
  Sn  Sn1  1  0.74277100  0.33258900  0.42529000  1
  Sn  Sn2  1  0.74277100  0.33258900  0.07471000  1
  Sn  Sn3  1  0.25722900  0.33258900  0.92529000  1
  Sn  Sn4  1  0.24880900  0.86838200  0.42439200  1
  Sn  Sn5  1  0.75119100  0.86838200  0.57560800  1
  Sn  Sn6  1  0.75119100  0.86838200  0.92439200  1
  Sn  Sn7  1  0.24880900  0.86838200  0.07560800  1
  Sn  Sn8  1  0.74365700  0.36376100  0.75000000  1
  Sn  Sn9  1  0.25634300  0.36376100  0.25000000  1
  S  S10  1  0.24988700  0.88727400  0.57093100  1
  S  S11  1  0.75011300  0.88727400  0.42906900  1
  S  S12  1  0.75011300  0.88727400  0.07093100  1
  S  S13  1  0.24988700  0.88727400  0.92906900  1
  S  S14  1  0.26031100  0.34314100  0.41968500  1
  S  S15  1  0.73968900  0.34314100  0.58031500  1
  S  S16  1  0.73968900  0.34314100  0.91968500  1
  S  S17  1  0.26031100  0.34314100  0.08031500  1
  Cl  Cl18  1  0.76323700  0.94070700  0.75000000  1
  Cl  Cl19  1  0.23676300  0.94070700  0.25000000  1
  Cl  Cl20  1  0.29837000  0.35934900  0.75000000  1
  Cl  Cl21  1  0.70163000  0.35934900  0.25000000  1
