# generated using pymatgen
data_Pr2In
_symmetry_space_group_name_H-M   'P 1'
_cell_length_a   5.61620594
_cell_length_b   5.61620594
_cell_length_c   7.01488800
_cell_angle_alpha   90.00000000
_cell_angle_beta   90.00000000
_cell_angle_gamma   119.99999930
_symmetry_Int_Tables_number   1
_chemical_formula_structural   Pr2In
_chemical_formula_sum   'Pr4 In2'
_cell_volume   191.61849520
_cell_formula_units_Z   2
loop_
 _symmetry_equiv_pos_site_id
 _symmetry_equiv_pos_as_xyz
  1  'x, y, z'
loop_
 _atom_site_type_symbol
 _atom_site_label
 _atom_site_symmetry_multiplicity
 _atom_site_fract_x
 _atom_site_fract_y
 _atom_site_fract_z
 _atom_site_occupancy
  Pr  Pr0  1  0.00000000  0.00000000  0.50000000  1
  Pr  Pr1  1  0.00000000  0.00000000  0.00000000  1
  Pr  Pr2  1  0.33333300  0.66666700  0.75000000  1
  Pr  Pr3  1  0.66666700  0.33333300  0.25000000  1
  In  In4  1  0.66666700  0.33333300  0.75000000  1
  In  In5  1  0.33333300  0.66666700  0.25000000  1
