# generated using pymatgen
data_CeTiGe
_symmetry_space_group_name_H-M   'P 1'
_cell_length_a   4.06242100
_cell_length_b   4.06242100
_cell_length_c   7.84513200
_cell_angle_alpha   90.00000000
_cell_angle_beta   90.00000000
_cell_angle_gamma   90.00000000
_symmetry_Int_Tables_number   1
_chemical_formula_structural   CeTiGe
_chemical_formula_sum   'Ce2 Ti2 Ge2'
_cell_volume   129.47028750
_cell_formula_units_Z   2
loop_
 _symmetry_equiv_pos_site_id
 _symmetry_equiv_pos_as_xyz
  1  'x, y, z'
loop_
 _atom_site_type_symbol
 _atom_site_label
 _atom_site_symmetry_multiplicity
 _atom_site_fract_x
 _atom_site_fract_y
 _atom_site_fract_z
 _atom_site_occupancy
  Ce  Ce0  1  0.00000000  0.50000000  0.35450600  1
  Ce  Ce1  1  0.50000000  0.00000000  0.64549400  1
  Ti  Ti2  1  0.50000000  0.50000000  0.00000000  1
  Ti  Ti3  1  0.00000000  0.00000000  0.00000000  1
  Ge  Ge4  1  0.50000000  0.00000000  0.23086500  1
  Ge  Ge5  1  0.00000000  0.50000000  0.76913500  1
