# generated using pymatgen
data_Pu2C3
_symmetry_space_group_name_H-M   'P 1'
_cell_length_a   7.06058387
_cell_length_b   7.06058387
_cell_length_c   7.06058387
_cell_angle_alpha   109.47122063
_cell_angle_beta   109.47122063
_cell_angle_gamma   109.47122063
_symmetry_Int_Tables_number   1
_chemical_formula_structural   Pu2C3
_chemical_formula_sum   'Pu8 C12'
_cell_volume   270.95674003
_cell_formula_units_Z   4
loop_
 _symmetry_equiv_pos_site_id
 _symmetry_equiv_pos_as_xyz
  1  'x, y, z'
loop_
 _atom_site_type_symbol
 _atom_site_label
 _atom_site_symmetry_multiplicity
 _atom_site_fract_x
 _atom_site_fract_y
 _atom_site_fract_z
 _atom_site_occupancy
  Pu  Pu0  1  0.50000000  0.00000000  0.59863300  1
  Pu  Pu1  1  0.09863300  0.50000000  0.00000000  1
  Pu  Pu2  1  0.40136700  0.40136700  0.40136700  1
  Pu  Pu3  1  0.00000000  0.09863300  0.50000000  1
  Pu  Pu4  1  0.90136700  0.90136700  0.90136700  1
  Pu  Pu5  1  0.00000000  0.59863300  0.50000000  1
  Pu  Pu6  1  0.59863300  0.50000000  0.00000000  1
  Pu  Pu7  1  0.50000000  0.00000000  0.09863300  1
  C  C8  1  0.78996200  0.25000000  0.03996200  1
  C  C9  1  0.96003800  0.25000000  0.21003800  1
  C  C10  1  0.75000000  0.28996200  0.53996200  1
  C  C11  1  0.21003800  0.96003800  0.25000000  1
  C  C12  1  0.25000000  0.21003800  0.96003800  1
  C  C13  1  0.28996200  0.53996200  0.75000000  1
  C  C14  1  0.71003800  0.75000000  0.46003800  1
  C  C15  1  0.03996200  0.78996200  0.25000000  1
  C  C16  1  0.53996200  0.75000000  0.28996200  1
  C  C17  1  0.75000000  0.46003800  0.71003800  1
  C  C18  1  0.25000000  0.03996200  0.78996200  1
  C  C19  1  0.46003800  0.71003800  0.75000000  1
