# generated using pymatgen
data_Zr2InNi2
_symmetry_space_group_name_H-M   'P 1'
_cell_length_a   7.21672000
_cell_length_b   7.21672000
_cell_length_c   3.35082400
_cell_angle_alpha   90.00000000
_cell_angle_beta   90.00000000
_cell_angle_gamma   90.00000000
_symmetry_Int_Tables_number   1
_chemical_formula_structural   Zr2InNi2
_chemical_formula_sum   'Zr4 In2 Ni4'
_cell_volume   174.51442410
_cell_formula_units_Z   2
loop_
 _symmetry_equiv_pos_site_id
 _symmetry_equiv_pos_as_xyz
  1  'x, y, z'
loop_
 _atom_site_type_symbol
 _atom_site_label
 _atom_site_symmetry_multiplicity
 _atom_site_fract_x
 _atom_site_fract_y
 _atom_site_fract_z
 _atom_site_occupancy
  Zr  Zr0  1  0.16775900  0.66775900  0.50000000  1
  Zr  Zr1  1  0.66775900  0.83224100  0.50000000  1
  Zr  Zr2  1  0.33224100  0.16775900  0.50000000  1
  Zr  Zr3  1  0.83224100  0.33224100  0.50000000  1
  In  In4  1  0.00000000  0.00000000  0.00000000  1
  In  In5  1  0.50000000  0.50000000  0.00000000  1
  Ni  Ni6  1  0.12476900  0.37523100  0.00000000  1
  Ni  Ni7  1  0.37523100  0.87523100  0.00000000  1
  Ni  Ni8  1  0.62476900  0.12476900  0.00000000  1
  Ni  Ni9  1  0.87523100  0.62476900  0.00000000  1
