# generated using pymatgen
data_NbTe4
_symmetry_space_group_name_H-M   'P 1'
_cell_length_a   6.61330000
_cell_length_b   6.61330000
_cell_length_c   6.96716800
_cell_angle_alpha   90.00000000
_cell_angle_beta   90.00000000
_cell_angle_gamma   90.00000000
_symmetry_Int_Tables_number   1
_chemical_formula_structural   NbTe4
_chemical_formula_sum   'Nb2 Te8'
_cell_volume   304.71422652
_cell_formula_units_Z   2
loop_
 _symmetry_equiv_pos_site_id
 _symmetry_equiv_pos_as_xyz
  1  'x, y, z'
loop_
 _atom_site_type_symbol
 _atom_site_label
 _atom_site_symmetry_multiplicity
 _atom_site_fract_x
 _atom_site_fract_y
 _atom_site_fract_z
 _atom_site_occupancy
  Nb  Nb0  1  0.00000000  0.00000000  0.75000000  1
  Nb  Nb1  1  0.00000000  0.00000000  0.25000000  1
  Te  Te2  1  0.32316000  0.14126800  0.50000000  1
  Te  Te3  1  0.67684000  0.85873200  0.50000000  1
  Te  Te4  1  0.32316000  0.85873200  0.00000000  1
  Te  Te5  1  0.67684000  0.14126800  0.00000000  1
  Te  Te6  1  0.14126800  0.67684000  0.50000000  1
  Te  Te7  1  0.85873200  0.32316000  0.50000000  1
  Te  Te8  1  0.85873200  0.67684000  0.00000000  1
  Te  Te9  1  0.14126800  0.32316000  0.00000000  1
