# generated using pymatgen
data_BaPr2CuO5
_symmetry_space_group_name_H-M   'P 1'
_cell_length_a   6.82016800
_cell_length_b   6.82016800
_cell_length_c   5.90272300
_cell_angle_alpha   90.00000000
_cell_angle_beta   90.00000000
_cell_angle_gamma   90.00000000
_symmetry_Int_Tables_number   1
_chemical_formula_structural   BaPr2CuO5
_chemical_formula_sum   'Ba2 Pr4 Cu2 O10'
_cell_volume   274.56333964
_cell_formula_units_Z   2
loop_
 _symmetry_equiv_pos_site_id
 _symmetry_equiv_pos_as_xyz
  1  'x, y, z'
loop_
 _atom_site_type_symbol
 _atom_site_label
 _atom_site_symmetry_multiplicity
 _atom_site_fract_x
 _atom_site_fract_y
 _atom_site_fract_z
 _atom_site_occupancy
  Ba  Ba0  1  0.50000000  0.50000000  0.00000000  1
  Ba  Ba1  1  0.00000000  0.00000000  0.00000000  1
  Pr  Pr2  1  0.32680700  0.82680700  0.50000000  1
  Pr  Pr3  1  0.82680700  0.67319300  0.50000000  1
  Pr  Pr4  1  0.17319300  0.32680700  0.50000000  1
  Pr  Pr5  1  0.67319300  0.17319300  0.50000000  1
  Cu  Cu6  1  0.00000000  0.50000000  0.00000000  1
  Cu  Cu7  1  0.50000000  0.00000000  0.00000000  1
  O  O8  1  0.13860000  0.63860000  0.24186600  1
  O  O9  1  0.86140000  0.36140000  0.24186600  1
  O  O10  1  0.36140000  0.13860000  0.24186600  1
  O  O11  1  0.63860000  0.86140000  0.24186600  1
  O  O12  1  0.13860000  0.63860000  0.75813400  1
  O  O13  1  0.63860000  0.86140000  0.75813400  1
  O  O14  1  0.36140000  0.13860000  0.75813400  1
  O  O15  1  0.86140000  0.36140000  0.75813400  1
  O  O16  1  0.00000000  0.00000000  0.50000000  1
  O  O17  1  0.50000000  0.50000000  0.50000000  1
