# generated using pymatgen
data_ZrPbS3
_symmetry_space_group_name_H-M   'P 1'
_cell_length_a   3.81662600
_cell_length_b   9.22525500
_cell_length_c   14.17110900
_cell_angle_alpha   90.00000000
_cell_angle_beta   90.00000000
_cell_angle_gamma   90.00000000
_symmetry_Int_Tables_number   1
_chemical_formula_structural   ZrPbS3
_chemical_formula_sum   'Zr4 Pb4 S12'
_cell_volume   498.95550960
_cell_formula_units_Z   4
loop_
 _symmetry_equiv_pos_site_id
 _symmetry_equiv_pos_as_xyz
  1  'x, y, z'
loop_
 _atom_site_type_symbol
 _atom_site_label
 _atom_site_symmetry_multiplicity
 _atom_site_fract_x
 _atom_site_fract_y
 _atom_site_fract_z
 _atom_site_occupancy
  Zr  Zr0  1  0.25000000  0.16577300  0.95126100  1
  Zr  Zr1  1  0.75000000  0.83422700  0.04873900  1
  Zr  Zr2  1  0.25000000  0.66577300  0.54873900  1
  Zr  Zr3  1  0.75000000  0.33422700  0.45126100  1
  Pb  Pb4  1  0.25000000  0.52280300  0.17260700  1
  Pb  Pb5  1  0.75000000  0.47719700  0.82739300  1
  Pb  Pb6  1  0.25000000  0.02280300  0.32739300  1
  Pb  Pb7  1  0.75000000  0.97719700  0.67260700  1
  S  S8  1  0.25000000  0.00944400  0.10469300  1
  S  S9  1  0.75000000  0.99055600  0.89530700  1
  S  S10  1  0.25000000  0.50944400  0.39530700  1
  S  S11  1  0.75000000  0.49055600  0.60469300  1
  S  S12  1  0.25000000  0.16903900  0.50964800  1
  S  S13  1  0.75000000  0.83096100  0.49035200  1
  S  S14  1  0.25000000  0.66903900  0.99035200  1
  S  S15  1  0.75000000  0.33096100  0.00964800  1
  S  S16  1  0.75000000  0.22739500  0.28643100  1
  S  S17  1  0.25000000  0.77260500  0.71356900  1
  S  S18  1  0.75000000  0.72739500  0.21356900  1
  S  S19  1  0.25000000  0.27260500  0.78643100  1
