# generated using pymatgen
data_HfCuSi2
_symmetry_space_group_name_H-M   'P 1'
_cell_length_a   3.67540700
_cell_length_b   3.67540700
_cell_length_c   9.05199600
_cell_angle_alpha   90.00000000
_cell_angle_beta   90.00000000
_cell_angle_gamma   90.00000000
_symmetry_Int_Tables_number   1
_chemical_formula_structural   HfCuSi2
_chemical_formula_sum   'Hf2 Cu2 Si4'
_cell_volume   122.27994357
_cell_formula_units_Z   2
loop_
 _symmetry_equiv_pos_site_id
 _symmetry_equiv_pos_as_xyz
  1  'x, y, z'
loop_
 _atom_site_type_symbol
 _atom_site_label
 _atom_site_symmetry_multiplicity
 _atom_site_fract_x
 _atom_site_fract_y
 _atom_site_fract_z
 _atom_site_occupancy
  Hf  Hf0  1  0.00000000  0.50000000  0.26659900  1
  Hf  Hf1  1  0.50000000  0.00000000  0.73340100  1
  Cu  Cu2  1  0.00000000  0.00000000  0.00000000  1
  Cu  Cu3  1  0.50000000  0.50000000  0.00000000  1
  Si  Si4  1  0.50000000  0.50000000  0.50000000  1
  Si  Si5  1  0.00000000  0.00000000  0.50000000  1
  Si  Si6  1  0.50000000  0.00000000  0.17391600  1
  Si  Si7  1  0.00000000  0.50000000  0.82608400  1
