# generated using pymatgen
data_LaInPt
_symmetry_space_group_name_H-M   'P 1'
_cell_length_a   7.77745646
_cell_length_b   7.77745646
_cell_length_c   4.18905900
_cell_angle_alpha   90.00000000
_cell_angle_beta   90.00000000
_cell_angle_gamma   120.00000388
_symmetry_Int_Tables_number   1
_chemical_formula_structural   LaInPt
_chemical_formula_sum   'La3 In3 Pt3'
_cell_volume   219.44327114
_cell_formula_units_Z   3
loop_
 _symmetry_equiv_pos_site_id
 _symmetry_equiv_pos_as_xyz
  1  'x, y, z'
loop_
 _atom_site_type_symbol
 _atom_site_label
 _atom_site_symmetry_multiplicity
 _atom_site_fract_x
 _atom_site_fract_y
 _atom_site_fract_z
 _atom_site_occupancy
  La  La0  1  0.41443800  0.41443800  0.50000000  1
  La  La1  1  0.00000000  0.58556200  0.50000000  1
  La  La2  1  0.58556200  0.00000000  0.50000000  1
  In  In3  1  0.75382800  0.75382800  0.00000000  1
  In  In4  1  0.24617200  0.00000000  0.00000000  1
  In  In5  1  0.00000000  0.24617200  0.00000000  1
  Pt  Pt6  1  0.66666700  0.33333300  0.00000000  1
  Pt  Pt7  1  0.33333300  0.66666700  0.00000000  1
  Pt  Pt8  1  0.00000000  0.00000000  0.50000000  1
