# generated using pymatgen
data_La(FeGe)2
_symmetry_space_group_name_H-M   'P 1'
_cell_length_a   6.15055980
_cell_length_b   6.15055980
_cell_length_c   6.15055980
_cell_angle_alpha   141.17846711
_cell_angle_beta   141.17846711
_cell_angle_gamma   56.06825888
_symmetry_Int_Tables_number   1
_chemical_formula_structural   La(FeGe)2
_chemical_formula_sum   'La1 Fe2 Ge2'
_cell_volume   90.73235163
_cell_formula_units_Z   1
loop_
 _symmetry_equiv_pos_site_id
 _symmetry_equiv_pos_as_xyz
  1  'x, y, z'
loop_
 _atom_site_type_symbol
 _atom_site_label
 _atom_site_symmetry_multiplicity
 _atom_site_fract_x
 _atom_site_fract_y
 _atom_site_fract_z
 _atom_site_occupancy
  La  La0  1  0.00000000  0.00000000  0.00000000  1
  Fe  Fe1  1  0.75000000  0.25000000  0.50000000  1
  Fe  Fe2  1  0.25000000  0.75000000  0.50000000  1
  Ge  Ge3  1  0.62555400  0.62555400  0.00000000  1
  Ge  Ge4  1  0.37444600  0.37444600  0.00000000  1
