# generated using pymatgen
data_Tb3In5S12
_symmetry_space_group_name_H-M   'P 1'
_cell_length_a   3.92361700
_cell_length_b   11.01067800
_cell_length_c   21.44114225
_cell_angle_alpha   84.04157273
_cell_angle_beta   90.00000000
_cell_angle_gamma   90.00000000
_symmetry_Int_Tables_number   1
_chemical_formula_structural   Tb3In5S12
_chemical_formula_sum   'Tb6 In10 S24'
_cell_volume   921.28911784
_cell_formula_units_Z   2
loop_
 _symmetry_equiv_pos_site_id
 _symmetry_equiv_pos_as_xyz
  1  'x, y, z'
loop_
 _atom_site_type_symbol
 _atom_site_label
 _atom_site_symmetry_multiplicity
 _atom_site_fract_x
 _atom_site_fract_y
 _atom_site_fract_z
 _atom_site_occupancy
  Tb  Tb0  1  0.25000000  0.71570800  0.28425600  1
  Tb  Tb1  1  0.75000000  0.28429200  0.71574400  1
  Tb  Tb2  1  0.25000000  0.91313500  0.76507600  1
  Tb  Tb3  1  0.75000000  0.08686500  0.23492400  1
  Tb  Tb4  1  0.25000000  0.02807100  0.58836100  1
  Tb  Tb5  1  0.75000000  0.97192900  0.41163900  1
  In  In6  1  0.25000000  0.83590300  0.11247900  1
  In  In7  1  0.75000000  0.34922000  0.52755100  1
  In  In8  1  0.25000000  0.65078000  0.47244900  1
  In  In9  1  0.75000000  0.45742300  0.17311600  1
  In  In10  1  0.25000000  0.54257700  0.82688400  1
  In  In11  1  0.75000000  0.64732700  0.66766400  1
  In  In12  1  0.25000000  0.35267300  0.33233600  1
  In  In13  1  0.75000000  0.75892400  0.94119600  1
  In  In14  1  0.25000000  0.24107600  0.05880400  1
  In  In15  1  0.75000000  0.16409700  0.88752100  1
  S  S16  1  0.25000000  0.61045100  0.15826900  1
  S  S17  1  0.75000000  0.86964900  0.03652900  1
  S  S18  1  0.25000000  0.13035100  0.96347100  1
  S  S19  1  0.75000000  0.93836500  0.85880400  1
  S  S20  1  0.25000000  0.06163500  0.14119600  1
  S  S21  1  0.75000000  0.38212100  0.06048500  1
  S  S22  1  0.25000000  0.61787900  0.93951500  1
  S  S23  1  0.75000000  0.72299400  0.38648600  1
  S  S24  1  0.25000000  0.27700600  0.61351400  1
  S  S25  1  0.75000000  0.83798200  0.21024900  1
  S  S26  1  0.25000000  0.96500000  0.31548400  1
  S  S27  1  0.75000000  0.03500000  0.68451600  1
  S  S28  1  0.25000000  0.29239700  0.21625000  1
  S  S29  1  0.75000000  0.70760300  0.78375000  1
  S  S30  1  0.25000000  0.48403400  0.71113600  1
  S  S31  1  0.75000000  0.51596600  0.28886400  1
  S  S32  1  0.25000000  0.79753100  0.65164900  1
  S  S33  1  0.75000000  0.20246900  0.34835100  1
  S  S34  1  0.25000000  0.42128300  0.44752400  1
  S  S35  1  0.75000000  0.57871700  0.55247600  1
  S  S36  1  0.75000000  0.12325600  0.50928800  1
  S  S37  1  0.75000000  0.38954900  0.84173100  1
  S  S38  1  0.25000000  0.87674400  0.49071200  1
  S  S39  1  0.25000000  0.16201800  0.78975100  1
