# generated using pymatgen
data_DyMn12
_symmetry_space_group_name_H-M   'P 1'
_cell_length_a   4.69734313
_cell_length_b   6.30520496
_cell_length_c   6.30520515
_cell_angle_alpha   82.02423950
_cell_angle_beta   68.13028481
_cell_angle_gamma   68.13028481
_symmetry_Int_Tables_number   1
_chemical_formula_structural   DyMn12
_chemical_formula_sum   'Dy1 Mn12'
_cell_volume   160.83398085
_cell_formula_units_Z   1
loop_
 _symmetry_equiv_pos_site_id
 _symmetry_equiv_pos_as_xyz
  1  'x, y, z'
loop_
 _atom_site_type_symbol
 _atom_site_label
 _atom_site_symmetry_multiplicity
 _atom_site_fract_x
 _atom_site_fract_y
 _atom_site_fract_z
 _atom_site_occupancy
  Dy  Dy0  1  0.00000000  0.00000000  0.00000000  1
  Mn  Mn1  1  0.72949300  0.77050700  0.77050700  1
  Mn  Mn2  1  0.50000000  0.00000000  0.50000000  1
  Mn  Mn3  1  0.00000000  0.50000000  0.00000000  1
  Mn  Mn4  1  0.50000000  0.50000000  0.00000000  1
  Mn  Mn5  1  0.00000000  0.00000000  0.50000000  1
  Mn  Mn6  1  0.36510400  0.63489600  0.63489600  1
  Mn  Mn7  1  0.00000000  0.36510400  0.63489600  1
  Mn  Mn8  1  0.00000000  0.63489600  0.36510400  1
  Mn  Mn9  1  0.63489600  0.36510400  0.36510400  1
  Mn  Mn10  1  0.27050700  0.22949300  0.22949300  1
  Mn  Mn11  1  0.50000000  0.77050700  0.22949300  1
  Mn  Mn12  1  0.50000000  0.22949300  0.77050700  1
