# generated using pymatgen
data_EuHg2
_symmetry_space_group_name_H-M   'P 1'
_cell_length_a   5.11802194
_cell_length_b   5.11802194
_cell_length_c   3.72672300
_cell_angle_alpha   90.00000000
_cell_angle_beta   90.00000000
_cell_angle_gamma   119.99999923
_symmetry_Int_Tables_number   1
_chemical_formula_structural   EuHg2
_chemical_formula_sum   'Eu1 Hg2'
_cell_volume   84.53995949
_cell_formula_units_Z   1
loop_
 _symmetry_equiv_pos_site_id
 _symmetry_equiv_pos_as_xyz
  1  'x, y, z'
loop_
 _atom_site_type_symbol
 _atom_site_label
 _atom_site_symmetry_multiplicity
 _atom_site_fract_x
 _atom_site_fract_y
 _atom_site_fract_z
 _atom_site_occupancy
  Eu  Eu0  1  0.00000000  0.00000000  0.00000000  1
  Hg  Hg1  1  0.33333300  0.66666700  0.50000000  1
  Hg  Hg2  1  0.66666700  0.33333300  0.50000000  1
