# generated using pymatgen
data_MnVAs
_symmetry_space_group_name_H-M   'P 1'
_cell_length_a   3.66666400
_cell_length_b   3.66666400
_cell_length_c   6.47664300
_cell_angle_alpha   90.00000000
_cell_angle_beta   90.00000000
_cell_angle_gamma   90.00000000
_symmetry_Int_Tables_number   1
_chemical_formula_structural   MnVAs
_chemical_formula_sum   'Mn2 V2 As2'
_cell_volume   87.07474035
_cell_formula_units_Z   2
loop_
 _symmetry_equiv_pos_site_id
 _symmetry_equiv_pos_as_xyz
  1  'x, y, z'
loop_
 _atom_site_type_symbol
 _atom_site_label
 _atom_site_symmetry_multiplicity
 _atom_site_fract_x
 _atom_site_fract_y
 _atom_site_fract_z
 _atom_site_occupancy
  Mn  Mn0  1  0.50000000  0.00000000  0.33895000  1
  Mn  Mn1  1  0.00000000  0.50000000  0.66105000  1
  V  V2  1  0.00000000  0.00000000  0.00000000  1
  V  V3  1  0.50000000  0.50000000  0.00000000  1
  As  As4  1  0.50000000  0.00000000  0.72186600  1
  As  As5  1  0.00000000  0.50000000  0.27813400  1
