# generated using pymatgen
data_Eu(POs)2
_symmetry_space_group_name_H-M   'P 1'
_cell_length_a   6.12363796
_cell_length_b   6.12363796
_cell_length_c   6.12363796
_cell_angle_alpha   141.09349481
_cell_angle_beta   141.09349481
_cell_angle_gamma   56.19668503
_symmetry_Int_Tables_number   1
_chemical_formula_structural   Eu(POs)2
_chemical_formula_sum   'Eu1 P2 Os2'
_cell_volume   89.86962653
_cell_formula_units_Z   1
loop_
 _symmetry_equiv_pos_site_id
 _symmetry_equiv_pos_as_xyz
  1  'x, y, z'
loop_
 _atom_site_type_symbol
 _atom_site_label
 _atom_site_symmetry_multiplicity
 _atom_site_fract_x
 _atom_site_fract_y
 _atom_site_fract_z
 _atom_site_occupancy
  Eu  Eu0  1  0.00000000  0.00000000  0.00000000  1
  P  P1  1  0.64292700  0.64292700  0.00000000  1
  P  P2  1  0.35707300  0.35707300  0.00000000  1
  Os  Os3  1  0.25000000  0.75000000  0.50000000  1
  Os  Os4  1  0.75000000  0.25000000  0.50000000  1
