# generated using pymatgen
data_GeO2
_symmetry_space_group_name_H-M   'P 1'
_cell_length_a   4.95753007
_cell_length_b   4.95753007
_cell_length_c   5.40446800
_cell_angle_alpha   90.00000000
_cell_angle_beta   90.00000000
_cell_angle_gamma   120.00000092
_symmetry_Int_Tables_number   1
_chemical_formula_structural   GeO2
_chemical_formula_sum   'Ge3 O6'
_cell_volume   115.03084007
_cell_formula_units_Z   3
loop_
 _symmetry_equiv_pos_site_id
 _symmetry_equiv_pos_as_xyz
  1  'x, y, z'
loop_
 _atom_site_type_symbol
 _atom_site_label
 _atom_site_symmetry_multiplicity
 _atom_site_fract_x
 _atom_site_fract_y
 _atom_site_fract_z
 _atom_site_occupancy
  Ge  Ge0  1  0.21988300  0.21988300  0.00000000  1
  Ge  Ge1  1  0.00000000  0.78011700  0.66666700  1
  Ge  Ge2  1  0.78011700  0.00000000  0.33333300  1
  O  O3  1  0.96002700  0.38160700  0.80566700  1
  O  O4  1  0.61839300  0.57842000  0.13900000  1
  O  O5  1  0.42158000  0.03997300  0.47233400  1
  O  O6  1  0.38160700  0.96002700  0.19433300  1
  O  O7  1  0.03997300  0.42158000  0.52766600  1
  O  O8  1  0.57842000  0.61839300  0.86100000  1
