# generated using pymatgen
data_CaIn
_symmetry_space_group_name_H-M   'P 1'
_cell_length_a   6.70998260
_cell_length_b   6.70998260
_cell_length_c   6.70998260
_cell_angle_alpha   112.67711307
_cell_angle_beta   112.67711307
_cell_angle_gamma   103.23379008
_symmetry_Int_Tables_number   1
_chemical_formula_structural   CaIn
_chemical_formula_sum   'Ca4 In4'
_cell_volume   230.52757087
_cell_formula_units_Z   4
loop_
 _symmetry_equiv_pos_site_id
 _symmetry_equiv_pos_as_xyz
  1  'x, y, z'
loop_
 _atom_site_type_symbol
 _atom_site_label
 _atom_site_symmetry_multiplicity
 _atom_site_fract_x
 _atom_site_fract_y
 _atom_site_fract_z
 _atom_site_occupancy
  Ca  Ca0  1  0.75000000  0.25000000  0.50000000  1
  Ca  Ca1  1  0.25000000  0.75000000  0.50000000  1
  Ca  Ca2  1  0.71006000  0.71006000  0.00000000  1
  Ca  Ca3  1  0.28994000  0.28994000  0.00000000  1
  In  In4  1  0.77891500  0.77891500  0.55783000  1
  In  In5  1  0.77891500  0.22108500  0.00000000  1
  In  In6  1  0.22108500  0.77891500  0.00000000  1
  In  In7  1  0.22108500  0.22108500  0.44217000  1
