# generated using pymatgen
data_La2InCuSe5
_symmetry_space_group_name_H-M   'P 1'
_cell_length_a   4.13940900
_cell_length_b   12.25927300
_cell_length_c   17.59535400
_cell_angle_alpha   90.00000000
_cell_angle_beta   90.00000000
_cell_angle_gamma   90.00000000
_symmetry_Int_Tables_number   1
_chemical_formula_structural   La2InCuSe5
_chemical_formula_sum   'La8 In4 Cu4 Se20'
_cell_volume   892.89638523
_cell_formula_units_Z   4
loop_
 _symmetry_equiv_pos_site_id
 _symmetry_equiv_pos_as_xyz
  1  'x, y, z'
loop_
 _atom_site_type_symbol
 _atom_site_label
 _atom_site_symmetry_multiplicity
 _atom_site_fract_x
 _atom_site_fract_y
 _atom_site_fract_z
 _atom_site_occupancy
  La  La0  1  0.25000000  0.13726400  0.40668200  1
  La  La1  1  0.75000000  0.86273600  0.59331800  1
  La  La2  1  0.25000000  0.63726400  0.09331800  1
  La  La3  1  0.75000000  0.36273600  0.90668200  1
  La  La4  1  0.25000000  0.47793300  0.32178400  1
  La  La5  1  0.75000000  0.52206700  0.67821600  1
  La  La6  1  0.25000000  0.97793300  0.17821600  1
  La  La7  1  0.75000000  0.02206700  0.82178400  1
  In  In8  1  0.25000000  0.19107400  0.63893600  1
  In  In9  1  0.75000000  0.80892600  0.36106400  1
  In  In10  1  0.25000000  0.69107400  0.86106400  1
  In  In11  1  0.75000000  0.30892600  0.13893600  1
  Cu  Cu12  1  0.75000000  0.92405000  0.99790700  1
  Cu  Cu13  1  0.25000000  0.57595000  0.49790700  1
  Cu  Cu14  1  0.75000000  0.42405000  0.50209300  1
  Cu  Cu15  1  0.25000000  0.07595000  0.00209300  1
  Se  Se16  1  0.25000000  0.48390500  0.80531500  1
  Se  Se17  1  0.75000000  0.51609500  0.19468500  1
  Se  Se18  1  0.25000000  0.98390500  0.69468500  1
  Se  Se19  1  0.75000000  0.01609500  0.30531500  1
  Se  Se20  1  0.25000000  0.39254400  0.03667300  1
  Se  Se21  1  0.75000000  0.60745600  0.96332700  1
  Se  Se22  1  0.25000000  0.89254400  0.46332700  1
  Se  Se23  1  0.75000000  0.10745600  0.53667300  1
  Se  Se24  1  0.25000000  0.18188900  0.88607100  1
  Se  Se25  1  0.75000000  0.31811100  0.38607100  1
  Se  Se26  1  0.25000000  0.68188900  0.61392900  1
  Se  Se27  1  0.75000000  0.81811100  0.11392900  1
  Se  Se28  1  0.75000000  0.10105900  0.07670000  1
  Se  Se29  1  0.25000000  0.89894100  0.92330000  1
  Se  Se30  1  0.75000000  0.60105900  0.42330000  1
  Se  Se31  1  0.25000000  0.39894100  0.57670000  1
  Se  Se32  1  0.75000000  0.26001700  0.72893500  1
  Se  Se33  1  0.25000000  0.73998300  0.27106500  1
  Se  Se34  1  0.75000000  0.76001700  0.77106500  1
  Se  Se35  1  0.25000000  0.23998300  0.22893500  1
