# generated using pymatgen
data_KGe
_symmetry_space_group_name_H-M   'P 1'
_cell_length_a   12.92490900
_cell_length_b   12.92490900
_cell_length_c   12.92490900
_cell_angle_alpha   90.00000000
_cell_angle_beta   90.00000000
_cell_angle_gamma   90.00000000
_symmetry_Int_Tables_number   1
_chemical_formula_structural   KGe
_chemical_formula_sum   'K32 Ge32'
_cell_volume   2159.14834726
_cell_formula_units_Z   32
loop_
 _symmetry_equiv_pos_site_id
 _symmetry_equiv_pos_as_xyz
  1  'x, y, z'
loop_
 _atom_site_type_symbol
 _atom_site_label
 _atom_site_symmetry_multiplicity
 _atom_site_fract_x
 _atom_site_fract_y
 _atom_site_fract_z
 _atom_site_occupancy
  K  K0  1  0.83763300  0.56710700  0.63919700  1
  K  K1  1  0.83763300  0.43289300  0.36080300  1
  K  K2  1  0.56710700  0.63919700  0.83763300  1
  K  K3  1  0.43289300  0.63919700  0.16236700  1
  K  K4  1  0.63919700  0.83763300  0.56710700  1
  K  K5  1  0.36080300  0.16236700  0.56710700  1
  K  K6  1  0.66236700  0.86080300  0.06710700  1
  K  K7  1  0.66236700  0.13919700  0.93289300  1
  K  K8  1  0.33763300  0.86080300  0.93289300  1
  K  K9  1  0.13919700  0.93289300  0.66236700  1
  K  K10  1  0.93289300  0.33763300  0.86080300  1
  K  K11  1  0.93289300  0.66236700  0.13919700  1
  K  K12  1  0.86080300  0.06710700  0.66236700  1
  K  K13  1  0.06710700  0.66236700  0.86080300  1
  K  K14  1  0.86080300  0.93289300  0.33763300  1
  K  K15  1  0.33486100  0.33486100  0.33486100  1
  K  K16  1  0.06710700  0.33763300  0.13919700  1
  K  K17  1  0.36080300  0.83763300  0.43289300  1
  K  K18  1  0.63919700  0.16236700  0.43289300  1
  K  K19  1  0.56710700  0.36080300  0.16236700  1
  K  K20  1  0.43289300  0.36080300  0.83763300  1
  K  K21  1  0.16236700  0.43289300  0.63919700  1
  K  K22  1  0.16236700  0.56710700  0.36080300  1
  K  K23  1  0.33763300  0.13919700  0.06710700  1
  K  K24  1  0.83486100  0.83486100  0.83486100  1
  K  K25  1  0.66513900  0.33486100  0.66513900  1
  K  K26  1  0.33486100  0.66513900  0.66513900  1
  K  K27  1  0.66513900  0.66513900  0.33486100  1
  K  K28  1  0.83486100  0.16513900  0.16513900  1
  K  K29  1  0.16513900  0.16513900  0.83486100  1
  K  K30  1  0.16513900  0.83486100  0.16513900  1
  K  K31  1  0.13919700  0.06710700  0.33763300  1
  Ge  Ge32  1  0.42230000  0.06520600  0.32030800  1
  Ge  Ge33  1  0.56520600  0.07770000  0.17969200  1
  Ge  Ge34  1  0.92230000  0.82030800  0.56520600  1
  Ge  Ge35  1  0.07770000  0.82030800  0.43479400  1
  Ge  Ge36  1  0.82030800  0.56520600  0.92230000  1
  Ge  Ge37  1  0.17969200  0.43479400  0.92230000  1
  Ge  Ge38  1  0.93479400  0.67969200  0.42230000  1
  Ge  Ge39  1  0.93479400  0.32030800  0.57770000  1
  Ge  Ge40  1  0.06520600  0.67969200  0.57770000  1
  Ge  Ge41  1  0.32030800  0.57770000  0.93479400  1
  Ge  Ge42  1  0.57770000  0.06520600  0.67969200  1
  Ge  Ge43  1  0.57770000  0.93479400  0.32030800  1
  Ge  Ge44  1  0.67969200  0.42230000  0.93479400  1
  Ge  Ge45  1  0.42230000  0.93479400  0.67969200  1
  Ge  Ge46  1  0.67969200  0.57770000  0.06520600  1
  Ge  Ge47  1  0.32030800  0.42230000  0.06520600  1
  Ge  Ge48  1  0.56520600  0.92230000  0.82030800  1
  Ge  Ge49  1  0.17969200  0.56520600  0.07770000  1
  Ge  Ge50  1  0.82030800  0.43479400  0.07770000  1
  Ge  Ge51  1  0.92230000  0.17969200  0.43479400  1
  Ge  Ge52  1  0.07770000  0.17969200  0.56520600  1
  Ge  Ge53  1  0.43479400  0.07770000  0.82030800  1
  Ge  Ge54  1  0.43479400  0.92230000  0.17969200  1
  Ge  Ge55  1  0.06520600  0.32030800  0.42230000  1
  Ge  Ge56  1  0.57122800  0.57122800  0.57122800  1
  Ge  Ge57  1  0.92877200  0.07122800  0.92877200  1
  Ge  Ge58  1  0.07122800  0.92877200  0.92877200  1
  Ge  Ge59  1  0.92877200  0.92877200  0.07122800  1
  Ge  Ge60  1  0.57122800  0.42877200  0.42877200  1
  Ge  Ge61  1  0.42877200  0.42877200  0.57122800  1
  Ge  Ge62  1  0.42877200  0.57122800  0.42877200  1
  Ge  Ge63  1  0.07122800  0.07122800  0.07122800  1
