# generated using pymatgen
data_CuAs2PbO7
_symmetry_space_group_name_H-M   'P 1'
_cell_length_a   8.51009700
_cell_length_b   5.70385700
_cell_length_c   14.19540601
_cell_angle_alpha   68.52254200
_cell_angle_beta   90.00000000
_cell_angle_gamma   90.00000000
_symmetry_Int_Tables_number   1
_chemical_formula_structural   CuAs2PbO7
_chemical_formula_sum   'Cu4 As8 Pb4 O28'
_cell_volume   641.20385793
_cell_formula_units_Z   4
loop_
 _symmetry_equiv_pos_site_id
 _symmetry_equiv_pos_as_xyz
  1  'x, y, z'
loop_
 _atom_site_type_symbol
 _atom_site_label
 _atom_site_symmetry_multiplicity
 _atom_site_fract_x
 _atom_site_fract_y
 _atom_site_fract_z
 _atom_site_occupancy
  Cu  Cu0  1  0.36524300  0.67609000  0.61760100  1
  Cu  Cu1  1  0.86524300  0.32391000  0.88239900  1
  Cu  Cu2  1  0.63475700  0.32391000  0.38239900  1
  Cu  Cu3  1  0.13475700  0.67609000  0.11760100  1
  As  As4  1  0.68934200  0.66555500  0.50726300  1
  As  As5  1  0.18934200  0.33444500  0.99273700  1
  As  As6  1  0.31065800  0.33444500  0.49273700  1
  As  As7  1  0.81065800  0.66555500  0.00726300  1
  As  As8  1  0.97366100  0.59241900  0.65936200  1
  As  As9  1  0.47366100  0.40758100  0.84063800  1
  As  As10  1  0.02633900  0.40758100  0.34063800  1
  As  As11  1  0.52633900  0.59241900  0.15936200  1
  Pb  Pb12  1  0.18296600  0.02129600  0.77358700  1
  Pb  Pb13  1  0.68296600  0.97870400  0.72641300  1
  Pb  Pb14  1  0.81703400  0.97870400  0.22641300  1
  Pb  Pb15  1  0.31703400  0.02129600  0.27358700  1
  O  O16  1  0.66332500  0.50285700  0.84585200  1
  O  O17  1  0.16332500  0.49714300  0.65414800  1
  O  O18  1  0.33667500  0.49714300  0.15414800  1
  O  O19  1  0.83667500  0.50285700  0.34585200  1
  O  O20  1  0.45357900  0.15530600  0.80513800  1
  O  O21  1  0.95357900  0.84469400  0.69486200  1
  O  O22  1  0.54642100  0.84469400  0.19486200  1
  O  O23  1  0.04642100  0.15530600  0.30513800  1
  O  O24  1  0.37962500  0.67400600  0.76062400  1
  O  O25  1  0.87962500  0.32599400  0.73937600  1
  O  O26  1  0.62037500  0.32599400  0.23937600  1
  O  O27  1  0.12037500  0.67400600  0.26062400  1
  O  O28  1  0.15002000  0.63847500  0.98501300  1
  O  O29  1  0.65002000  0.36152500  0.51498700  1
  O  O30  1  0.84998000  0.36152500  0.01498700  1
  O  O31  1  0.34998000  0.63847500  0.48501300  1
  O  O32  1  0.10366500  0.32774700  0.46443100  1
  O  O33  1  0.60366500  0.67225300  0.03556900  1
  O  O34  1  0.89633500  0.67225300  0.53556900  1
  O  O35  1  0.39633500  0.32774700  0.96443100  1
  O  O36  1  0.40352800  0.28047700  0.39438400  1
  O  O37  1  0.90352800  0.71952300  0.10561600  1
  O  O38  1  0.59647200  0.71952300  0.60561600  1
  O  O39  1  0.09647200  0.28047700  0.89438400  1
  O  O40  1  0.17510500  0.09452100  0.10618100  1
  O  O41  1  0.67510500  0.90547900  0.39381900  1
  O  O42  1  0.82489500  0.90547900  0.89381900  1
  O  O43  1  0.32489500  0.09452100  0.60618100  1
