# generated using pymatgen
data_Sm3InSe6
_symmetry_space_group_name_H-M   'P 1'
_cell_length_a   4.10094900
_cell_length_b   14.32220000
_cell_length_c   17.58624700
_cell_angle_alpha   90.00000000
_cell_angle_beta   90.00000000
_cell_angle_gamma   90.00000000
_symmetry_Int_Tables_number   1
_chemical_formula_structural   Sm3InSe6
_chemical_formula_sum   'Sm12 In4 Se24'
_cell_volume   1032.92139000
_cell_formula_units_Z   4
loop_
 _symmetry_equiv_pos_site_id
 _symmetry_equiv_pos_as_xyz
  1  'x, y, z'
loop_
 _atom_site_type_symbol
 _atom_site_label
 _atom_site_symmetry_multiplicity
 _atom_site_fract_x
 _atom_site_fract_y
 _atom_site_fract_z
 _atom_site_occupancy
  Sm  Sm0  1  0.50000000  0.74896000  0.60593400  1
  Sm  Sm1  1  0.50000000  0.25104000  0.39406600  1
  Sm  Sm2  1  0.00000000  0.24896000  0.89406600  1
  Sm  Sm3  1  0.00000000  0.75104000  0.10593400  1
  Sm  Sm4  1  0.50000000  0.95933000  0.77575200  1
  Sm  Sm5  1  0.50000000  0.04067000  0.22424800  1
  Sm  Sm6  1  0.00000000  0.45933000  0.72424800  1
  Sm  Sm7  1  0.00000000  0.54067000  0.27575200  1
  Sm  Sm8  1  0.50000000  0.18681900  0.64567500  1
  Sm  Sm9  1  0.50000000  0.81318100  0.35432500  1
  Sm  Sm10  1  0.00000000  0.68681900  0.85432500  1
  Sm  Sm11  1  0.00000000  0.31318100  0.14567500  1
  In  In12  1  0.50000000  0.50000000  0.50000000  1
  In  In13  1  0.00000000  0.00000000  0.00000000  1
  In  In14  1  0.50000000  0.50000000  0.00000000  1
  In  In15  1  0.00000000  0.00000000  0.50000000  1
  Se  Se16  1  0.50000000  0.97721000  0.60436900  1
  Se  Se17  1  0.50000000  0.02279000  0.39563100  1
  Se  Se18  1  0.00000000  0.47721000  0.89563100  1
  Se  Se19  1  0.00000000  0.52279000  0.10436900  1
  Se  Se20  1  0.50000000  0.09516500  0.91270400  1
  Se  Se21  1  0.50000000  0.90483500  0.08729600  1
  Se  Se22  1  0.00000000  0.59516500  0.58729600  1
  Se  Se23  1  0.00000000  0.40483500  0.41270400  1
  Se  Se24  1  0.50000000  0.30854900  0.01989000  1
  Se  Se25  1  0.50000000  0.69145100  0.98011000  1
  Se  Se26  1  0.00000000  0.80854900  0.48011000  1
  Se  Se27  1  0.00000000  0.19145100  0.51989000  1
  Se  Se28  1  0.50000000  0.31738300  0.78515300  1
  Se  Se29  1  0.50000000  0.68261700  0.21484700  1
  Se  Se30  1  0.00000000  0.81738300  0.71484700  1
  Se  Se31  1  0.00000000  0.18261700  0.28515300  1
  Se  Se32  1  0.00000000  0.11244900  0.74834000  1
  Se  Se33  1  0.00000000  0.88755100  0.25166000  1
  Se  Se34  1  0.50000000  0.61244900  0.75166000  1
  Se  Se35  1  0.50000000  0.38755100  0.24834000  1
  Se  Se36  1  0.00000000  0.11209400  0.11697500  1
  Se  Se37  1  0.00000000  0.88790600  0.88302500  1
  Se  Se38  1  0.50000000  0.61209400  0.38302500  1
  Se  Se39  1  0.50000000  0.38790600  0.61697500  1
