# generated using pymatgen
data_SrAlBO4
_symmetry_space_group_name_H-M   'P 1'
_cell_length_a   5.80698100
_cell_length_b   8.92487400
_cell_length_c   14.65144500
_cell_angle_alpha   90.00000000
_cell_angle_beta   90.00000000
_cell_angle_gamma   90.00000000
_symmetry_Int_Tables_number   1
_chemical_formula_structural   SrAlBO4
_chemical_formula_sum   'Sr8 Al8 B8 O32'
_cell_volume   759.33419477
_cell_formula_units_Z   8
loop_
 _symmetry_equiv_pos_site_id
 _symmetry_equiv_pos_as_xyz
  1  'x, y, z'
loop_
 _atom_site_type_symbol
 _atom_site_label
 _atom_site_symmetry_multiplicity
 _atom_site_fract_x
 _atom_site_fract_y
 _atom_site_fract_z
 _atom_site_occupancy
  Sr  Sr0  1  0.18776400  0.07970700  0.65241400  1
  Sr  Sr1  1  0.18776400  0.42029300  0.84758600  1
  Sr  Sr2  1  0.31223600  0.57970700  0.34758600  1
  Sr  Sr3  1  0.31223600  0.92029300  0.15241400  1
  Sr  Sr4  1  0.81223600  0.92029300  0.34758600  1
  Sr  Sr5  1  0.81223600  0.57970700  0.15241400  1
  Sr  Sr6  1  0.68776400  0.42029300  0.65241400  1
  Sr  Sr7  1  0.68776400  0.07970700  0.84758600  1
  Al  Al8  1  0.37028600  0.70761300  0.57215100  1
  Al  Al9  1  0.37028600  0.79238700  0.92784900  1
  Al  Al10  1  0.12971400  0.20761300  0.42784900  1
  Al  Al11  1  0.12971400  0.29238700  0.07215100  1
  Al  Al12  1  0.62971400  0.29238700  0.42784900  1
  Al  Al13  1  0.62971400  0.20761300  0.07215100  1
  Al  Al14  1  0.87028600  0.79238700  0.57215100  1
  Al  Al15  1  0.87028600  0.70761300  0.92784900  1
  B  B16  1  0.68208200  0.40177900  0.91134200  1
  B  B17  1  0.18208200  0.40177900  0.58865800  1
  B  B18  1  0.18208200  0.09822100  0.91134200  1
  B  B19  1  0.31791800  0.90177900  0.41134200  1
  B  B20  1  0.31791800  0.59822100  0.08865800  1
  B  B21  1  0.81791800  0.59822100  0.41134200  1
  B  B22  1  0.81791800  0.90177900  0.08865800  1
  B  B23  1  0.68208200  0.09822100  0.58865800  1
  O  O24  1  0.92400200  0.71320900  0.46060000  1
  O  O25  1  0.42400200  0.71320900  0.03940000  1
  O  O26  1  0.42400200  0.78679100  0.46060000  1
  O  O27  1  0.07599800  0.21320900  0.96060000  1
  O  O28  1  0.07599800  0.28679100  0.53940000  1
  O  O29  1  0.57599800  0.28679100  0.96060000  1
  O  O30  1  0.57599800  0.21320900  0.53940000  1
  O  O31  1  0.92400200  0.78679100  0.03940000  1
  O  O32  1  0.14320200  0.80478400  0.62519800  1
  O  O33  1  0.14320200  0.69521600  0.87480200  1
  O  O34  1  0.35679800  0.30478400  0.37480200  1
  O  O35  1  0.35679800  0.19521600  0.12519800  1
  O  O36  1  0.85679800  0.19521600  0.37480200  1
  O  O37  1  0.85679800  0.30478400  0.12519800  1
  O  O38  1  0.64320200  0.69521600  0.62519800  1
  O  O39  1  0.64320200  0.80478400  0.87480200  1
  O  O40  1  0.67383400  0.38879400  0.81771400  1
  O  O41  1  0.67383400  0.11120600  0.68228600  1
  O  O42  1  0.82616600  0.88879400  0.18228600  1
  O  O43  1  0.82616600  0.61120600  0.31771400  1
  O  O44  1  0.32616600  0.61120600  0.18228600  1
  O  O45  1  0.32616600  0.88879400  0.31771400  1
  O  O46  1  0.17383400  0.11120600  0.81771400  1
  O  O47  1  0.17383400  0.38879400  0.68228600  1
  O  O48  1  0.78744600  0.51961400  0.95465200  1
  O  O49  1  0.78744600  0.98038600  0.54534800  1
  O  O50  1  0.71255400  0.01961400  0.04534800  1
  O  O51  1  0.71255400  0.48038600  0.45465200  1
  O  O52  1  0.21255400  0.48038600  0.04534800  1
  O  O53  1  0.21255400  0.01961400  0.45465200  1
  O  O54  1  0.28744600  0.98038600  0.95465200  1
  O  O55  1  0.28744600  0.51961400  0.54534800  1
