# generated using pymatgen
data_SnSe
_symmetry_space_group_name_H-M   'P 1'
_cell_length_a   6.37749749
_cell_length_b   6.37749749
_cell_length_c   4.30099700
_cell_angle_alpha   90.00000000
_cell_angle_beta   90.00000000
_cell_angle_gamma   140.69701733
_symmetry_Int_Tables_number   1
_chemical_formula_structural   SnSe
_chemical_formula_sum   'Sn2 Se2'
_cell_volume   110.80574967
_cell_formula_units_Z   2
loop_
 _symmetry_equiv_pos_site_id
 _symmetry_equiv_pos_as_xyz
  1  'x, y, z'
loop_
 _atom_site_type_symbol
 _atom_site_label
 _atom_site_symmetry_multiplicity
 _atom_site_fract_x
 _atom_site_fract_y
 _atom_site_fract_z
 _atom_site_occupancy
  Sn  Sn0  1  0.12719400  0.87280600  0.75000000  1
  Sn  Sn1  1  0.87280600  0.12719400  0.25000000  1
  Se  Se2  1  0.35541300  0.64458700  0.75000000  1
  Se  Se3  1  0.64458700  0.35541300  0.25000000  1
