# generated using pymatgen
data_GdAl3(PbO4)2
_symmetry_space_group_name_H-M   'P 1'
_cell_length_a   9.57834900
_cell_length_b   9.57834900
_cell_length_c   9.57834900
_cell_angle_alpha   90.00000000
_cell_angle_beta   90.00000000
_cell_angle_gamma   90.00000000
_symmetry_Int_Tables_number   1
_chemical_formula_structural   GdAl3(PbO4)2
_chemical_formula_sum   'Gd4 Al12 Pb8 O32'
_cell_volume   878.76342183
_cell_formula_units_Z   4
loop_
 _symmetry_equiv_pos_site_id
 _symmetry_equiv_pos_as_xyz
  1  'x, y, z'
loop_
 _atom_site_type_symbol
 _atom_site_label
 _atom_site_symmetry_multiplicity
 _atom_site_fract_x
 _atom_site_fract_y
 _atom_site_fract_z
 _atom_site_occupancy
  Gd  Gd0  1  0.25000000  0.75000000  0.25000000  1
  Gd  Gd1  1  0.75000000  0.25000000  0.25000000  1
  Gd  Gd2  1  0.75000000  0.75000000  0.75000000  1
  Gd  Gd3  1  0.25000000  0.25000000  0.75000000  1
  Al  Al4  1  0.50000000  0.00000000  0.25000000  1
  Al  Al5  1  0.75000000  0.50000000  0.00000000  1
  Al  Al6  1  0.25000000  0.50000000  0.00000000  1
  Al  Al7  1  0.00000000  0.25000000  0.50000000  1
  Al  Al8  1  0.00000000  0.75000000  0.50000000  1
  Al  Al9  1  0.50000000  0.00000000  0.75000000  1
  Al  Al10  1  0.00000000  0.50000000  0.25000000  1
  Al  Al11  1  0.75000000  0.00000000  0.50000000  1
  Al  Al12  1  0.25000000  0.00000000  0.50000000  1
  Al  Al13  1  0.50000000  0.25000000  0.00000000  1
  Al  Al14  1  0.50000000  0.75000000  0.00000000  1
  Al  Al15  1  0.00000000  0.50000000  0.75000000  1
  Pb  Pb16  1  0.36650400  0.36650400  0.36650400  1
  Pb  Pb17  1  0.86650400  0.13349600  0.86650400  1
  Pb  Pb18  1  0.13349600  0.86650400  0.86650400  1
  Pb  Pb19  1  0.86650400  0.86650400  0.13349600  1
  Pb  Pb20  1  0.36650400  0.63349600  0.63349600  1
  Pb  Pb21  1  0.63349600  0.63349600  0.36650400  1
  Pb  Pb22  1  0.63349600  0.36650400  0.63349600  1
  Pb  Pb23  1  0.13349600  0.13349600  0.13349600  1
  O  O24  1  0.51416100  0.15759000  0.15759000  1
  O  O25  1  0.51416100  0.84241000  0.84241000  1
  O  O26  1  0.15759000  0.15759000  0.51416100  1
  O  O27  1  0.84241000  0.15759000  0.48583900  1
  O  O28  1  0.15759000  0.51416100  0.15759000  1
  O  O29  1  0.84241000  0.48583900  0.15759000  1
  O  O30  1  0.01416100  0.65759000  0.34241000  1
  O  O31  1  0.01416100  0.34241000  0.65759000  1
  O  O32  1  0.98583900  0.65759000  0.65759000  1
  O  O33  1  0.34241000  0.65759000  0.01416100  1
  O  O34  1  0.65759000  0.98583900  0.65759000  1
  O  O35  1  0.65759000  0.01416100  0.34241000  1
  O  O36  1  0.65759000  0.34241000  0.01416100  1
  O  O37  1  0.34241000  0.01416100  0.65759000  1
  O  O38  1  0.65759000  0.65759000  0.98583900  1
  O  O39  1  0.34241000  0.34241000  0.98583900  1
  O  O40  1  0.34241000  0.98583900  0.34241000  1
  O  O41  1  0.84241000  0.51416100  0.84241000  1
  O  O42  1  0.15759000  0.48583900  0.84241000  1
  O  O43  1  0.15759000  0.84241000  0.48583900  1
  O  O44  1  0.84241000  0.84241000  0.51416100  1
  O  O45  1  0.48583900  0.84241000  0.15759000  1
  O  O46  1  0.48583900  0.15759000  0.84241000  1
  O  O47  1  0.98583900  0.34241000  0.34241000  1
  O  O48  1  0.61157900  0.61157900  0.61157900  1
  O  O49  1  0.11157900  0.88842100  0.11157900  1
  O  O50  1  0.11157900  0.11157900  0.88842100  1
  O  O51  1  0.88842100  0.11157900  0.11157900  1
  O  O52  1  0.38842100  0.38842100  0.61157900  1
  O  O53  1  0.61157900  0.38842100  0.38842100  1
  O  O54  1  0.38842100  0.61157900  0.38842100  1
  O  O55  1  0.88842100  0.88842100  0.88842100  1
