# generated using pymatgen
data_HoTiGe
_symmetry_space_group_name_H-M   'P 1'
_cell_length_a   4.04445500
_cell_length_b   4.04445500
_cell_length_c   7.63551500
_cell_angle_alpha   90.00000000
_cell_angle_beta   90.00000000
_cell_angle_gamma   90.00000000
_symmetry_Int_Tables_number   1
_chemical_formula_structural   HoTiGe
_chemical_formula_sum   'Ho2 Ti2 Ge2'
_cell_volume   124.89882422
_cell_formula_units_Z   2
loop_
 _symmetry_equiv_pos_site_id
 _symmetry_equiv_pos_as_xyz
  1  'x, y, z'
loop_
 _atom_site_type_symbol
 _atom_site_label
 _atom_site_symmetry_multiplicity
 _atom_site_fract_x
 _atom_site_fract_y
 _atom_site_fract_z
 _atom_site_occupancy
  Ho  Ho0  1  0.00000000  0.50000000  0.34345500  1
  Ho  Ho1  1  0.50000000  0.00000000  0.65654500  1
  Ti  Ti2  1  0.50000000  0.50000000  0.00000000  1
  Ti  Ti3  1  0.00000000  0.00000000  0.00000000  1
  Ge  Ge4  1  0.50000000  0.00000000  0.24639000  1
  Ge  Ge5  1  0.00000000  0.50000000  0.75361000  1
