# generated using pymatgen
data_AgRhO2
_symmetry_space_group_name_H-M   'P 1'
_cell_length_a   6.58407022
_cell_length_b   6.58407022
_cell_length_c   6.58407100
_cell_angle_alpha   27.39746964
_cell_angle_beta   27.39746964
_cell_angle_gamma   27.39747439
_symmetry_Int_Tables_number   1
_chemical_formula_structural   AgRhO2
_chemical_formula_sum   'Ag1 Rh1 O2'
_cell_volume   53.33620447
_cell_formula_units_Z   1
loop_
 _symmetry_equiv_pos_site_id
 _symmetry_equiv_pos_as_xyz
  1  'x, y, z'
loop_
 _atom_site_type_symbol
 _atom_site_label
 _atom_site_symmetry_multiplicity
 _atom_site_fract_x
 _atom_site_fract_y
 _atom_site_fract_z
 _atom_site_occupancy
  Ag  Ag0  1  0.00000000  0.00000000  0.00000000  1
  Rh  Rh1  1  0.50000000  0.50000000  0.50000000  1
  O  O2  1  0.88697500  0.88697500  0.88697500  1
  O  O3  1  0.11302500  0.11302500  0.11302500  1
