# generated using pymatgen
data_LaSn
_symmetry_space_group_name_H-M   'P 1'
_cell_length_a   6.47126452
_cell_length_b   6.47126452
_cell_length_c   4.44934200
_cell_angle_alpha   90.00000000
_cell_angle_beta   90.00000000
_cell_angle_gamma   136.10283324
_symmetry_Int_Tables_number   1
_chemical_formula_structural   LaSn
_chemical_formula_sum   'La2 Sn2'
_cell_volume   129.19233848
_cell_formula_units_Z   2
loop_
 _symmetry_equiv_pos_site_id
 _symmetry_equiv_pos_as_xyz
  1  'x, y, z'
loop_
 _atom_site_type_symbol
 _atom_site_label
 _atom_site_symmetry_multiplicity
 _atom_site_fract_x
 _atom_site_fract_y
 _atom_site_fract_z
 _atom_site_occupancy
  La  La0  1  0.86340300  0.13659700  0.25000000  1
  La  La1  1  0.13659700  0.86340300  0.75000000  1
  Sn  Sn2  1  0.58619800  0.41380200  0.25000000  1
  Sn  Sn3  1  0.41380200  0.58619800  0.75000000  1
