# generated using pymatgen
data_Si3N4
_symmetry_space_group_name_H-M   'P 1'
_cell_length_a   7.80918647
_cell_length_b   7.80918647
_cell_length_c   5.65995100
_cell_angle_alpha   90.00000000
_cell_angle_beta   90.00000000
_cell_angle_gamma   120.00000397
_symmetry_Int_Tables_number   1
_chemical_formula_structural   Si3N4
_chemical_formula_sum   'Si12 N16'
_cell_volume   298.91992999
_cell_formula_units_Z   4
loop_
 _symmetry_equiv_pos_site_id
 _symmetry_equiv_pos_as_xyz
  1  'x, y, z'
loop_
 _atom_site_type_symbol
 _atom_site_label
 _atom_site_symmetry_multiplicity
 _atom_site_fract_x
 _atom_site_fract_y
 _atom_site_fract_z
 _atom_site_occupancy
  Si  Si0  1  0.51207700  0.42964900  0.66080400  1
  Si  Si1  1  0.57035100  0.08242800  0.66080400  1
  Si  Si2  1  0.91757200  0.48792300  0.66080400  1
  Si  Si3  1  0.42964900  0.51207700  0.16080400  1
  Si  Si4  1  0.08242800  0.57035100  0.16080400  1
  Si  Si5  1  0.48792300  0.91757200  0.16080400  1
  Si  Si6  1  0.16729500  0.91386100  0.45255400  1
  Si  Si7  1  0.08613900  0.25343400  0.45255400  1
  Si  Si8  1  0.74656600  0.83270500  0.45255400  1
  Si  Si9  1  0.91386100  0.16729500  0.95255400  1
  Si  Si10  1  0.25343400  0.08613900  0.95255400  1
  Si  Si11  1  0.83270500  0.74656600  0.95255400  1
  N  N12  1  0.61004500  0.95456400  0.43356100  1
  N  N13  1  0.04543600  0.65548100  0.43356100  1
  N  N14  1  0.34451900  0.38995500  0.43356100  1
  N  N15  1  0.95456400  0.61004500  0.93356100  1
  N  N16  1  0.65548100  0.04543600  0.93356100  1
  N  N17  1  0.38995500  0.34451900  0.93356100  1
  N  N18  1  0.31886100  0.00434200  0.69861800  1
  N  N19  1  0.99565800  0.31451900  0.69861800  1
  N  N20  1  0.68548100  0.68113900  0.69861800  1
  N  N21  1  0.00434200  0.31886100  0.19861800  1
  N  N22  1  0.31451900  0.99565800  0.19861800  1
  N  N23  1  0.68113900  0.68548100  0.19861800  1
  N  N24  1  0.66666700  0.33333300  0.60523000  1
  N  N25  1  0.33333300  0.66666700  0.10523000  1
  N  N26  1  0.00000000  0.00000000  0.45325800  1
  N  N27  1  0.00000000  0.00000000  0.95325800  1
