# generated using pymatgen
data_KTiS2
_symmetry_space_group_name_H-M   'P 1'
_cell_length_a   7.66707979
_cell_length_b   7.66707979
_cell_length_c   7.66707967
_cell_angle_alpha   27.54117335
_cell_angle_beta   27.54117335
_cell_angle_gamma   27.54116630
_symmetry_Int_Tables_number   1
_chemical_formula_structural   KTiS2
_chemical_formula_sum   'K1 Ti1 S2'
_cell_volume   85.05581711
_cell_formula_units_Z   1
loop_
 _symmetry_equiv_pos_site_id
 _symmetry_equiv_pos_as_xyz
  1  'x, y, z'
loop_
 _atom_site_type_symbol
 _atom_site_label
 _atom_site_symmetry_multiplicity
 _atom_site_fract_x
 _atom_site_fract_y
 _atom_site_fract_z
 _atom_site_occupancy
  K  K0  1  0.18166900  0.18166900  0.18166900  1
  Ti  Ti1  1  0.01319900  0.01319900  0.01319900  1
  S  S2  1  0.61781200  0.61781200  0.61781200  1
  S  S3  1  0.40932100  0.40932100  0.40932100  1
