# generated using pymatgen
data_Ce2Ni2Sn
_symmetry_space_group_name_H-M   'P 1'
_cell_length_a   5.44896766
_cell_length_b   5.44896766
_cell_length_c   5.44896766
_cell_angle_alpha   132.84302496
_cell_angle_beta   115.56056967
_cell_angle_gamma   83.60068187
_symmetry_Int_Tables_number   1
_chemical_formula_structural   Ce2Ni2Sn
_chemical_formula_sum   'Ce2 Ni2 Sn1'
_cell_volume   102.88759011
_cell_formula_units_Z   1
loop_
 _symmetry_equiv_pos_site_id
 _symmetry_equiv_pos_as_xyz
  1  'x, y, z'
loop_
 _atom_site_type_symbol
 _atom_site_label
 _atom_site_symmetry_multiplicity
 _atom_site_fract_x
 _atom_site_fract_y
 _atom_site_fract_z
 _atom_site_occupancy
  Ce  Ce0  1  0.70185400  0.20185400  0.50000000  1
  Ce  Ce1  1  0.29814600  0.79814600  0.50000000  1
  Ni  Ni2  1  0.28836300  0.50000000  0.78836300  1
  Ni  Ni3  1  0.71163700  0.50000000  0.21163700  1
  Sn  Sn4  1  0.00000000  0.00000000  0.00000000  1
