# generated using pymatgen
data_DyInIr
_symmetry_space_group_name_H-M   'P 1'
_cell_length_a   7.51260184
_cell_length_b   7.51260184
_cell_length_c   3.97486100
_cell_angle_alpha   90.00000000
_cell_angle_beta   90.00000000
_cell_angle_gamma   119.99999862
_symmetry_Int_Tables_number   1
_chemical_formula_structural   DyInIr
_chemical_formula_sum   'Dy3 In3 Ir3'
_cell_volume   194.28234143
_cell_formula_units_Z   3
loop_
 _symmetry_equiv_pos_site_id
 _symmetry_equiv_pos_as_xyz
  1  'x, y, z'
loop_
 _atom_site_type_symbol
 _atom_site_label
 _atom_site_symmetry_multiplicity
 _atom_site_fract_x
 _atom_site_fract_y
 _atom_site_fract_z
 _atom_site_occupancy
  Dy  Dy0  1  0.59424800  0.59424800  0.00000000  1
  Dy  Dy1  1  0.40575200  0.00000000  0.00000000  1
  Dy  Dy2  1  0.00000000  0.40575200  0.00000000  1
  In  In3  1  0.00000000  0.74307500  0.50000000  1
  In  In4  1  0.25692500  0.25692500  0.50000000  1
  In  In5  1  0.74307500  0.00000000  0.50000000  1
  Ir  Ir6  1  0.00000000  0.00000000  0.00000000  1
  Ir  Ir7  1  0.66666700  0.33333300  0.50000000  1
  Ir  Ir8  1  0.33333300  0.66666700  0.50000000  1
