# generated using pymatgen
data_HfPbO3
_symmetry_space_group_name_H-M   'P 1'
_cell_length_a   5.89738700
_cell_length_b   8.24181300
_cell_length_c   11.78521800
_cell_angle_alpha   90.00000000
_cell_angle_beta   90.00000000
_cell_angle_gamma   90.00000000
_symmetry_Int_Tables_number   1
_chemical_formula_structural   HfPbO3
_chemical_formula_sum   'Hf8 Pb8 O24'
_cell_volume   572.82241646
_cell_formula_units_Z   8
loop_
 _symmetry_equiv_pos_site_id
 _symmetry_equiv_pos_as_xyz
  1  'x, y, z'
loop_
 _atom_site_type_symbol
 _atom_site_label
 _atom_site_symmetry_multiplicity
 _atom_site_fract_x
 _atom_site_fract_y
 _atom_site_fract_z
 _atom_site_occupancy
  Hf  Hf0  1  0.25721300  0.25040400  0.62387500  1
  Hf  Hf1  1  0.75721300  0.74959600  0.87612500  1
  Hf  Hf2  1  0.74278700  0.25040400  0.37612500  1
  Hf  Hf3  1  0.24278700  0.74959600  0.12387500  1
  Hf  Hf4  1  0.74278700  0.74959600  0.37612500  1
  Hf  Hf5  1  0.24278700  0.25040400  0.12387500  1
  Hf  Hf6  1  0.25721300  0.74959600  0.62387500  1
  Hf  Hf7  1  0.75721300  0.25040400  0.87612500  1
  Pb  Pb8  1  0.20536500  0.50000000  0.37541800  1
  Pb  Pb9  1  0.70536500  0.50000000  0.12458200  1
  Pb  Pb10  1  0.79463500  0.50000000  0.62458200  1
  Pb  Pb11  1  0.29463500  0.50000000  0.87541800  1
  Pb  Pb12  1  0.21004500  0.00000000  0.37010200  1
  Pb  Pb13  1  0.71004500  0.00000000  0.12989800  1
  Pb  Pb14  1  0.78995500  0.00000000  0.62989800  1
  Pb  Pb15  1  0.28995500  0.00000000  0.87010200  1
  O  O16  1  0.50000000  0.26994100  0.50000000  1
  O  O17  1  0.00000000  0.73005900  0.00000000  1
  O  O18  1  0.50000000  0.73005900  0.50000000  1
  O  O19  1  0.00000000  0.26994100  0.00000000  1
  O  O20  1  0.50000000  0.29086600  0.00000000  1
  O  O21  1  0.00000000  0.70913400  0.50000000  1
  O  O22  1  0.50000000  0.70913400  0.00000000  1
  O  O23  1  0.00000000  0.29086600  0.50000000  1
  O  O24  1  0.47481700  0.22197800  0.75919000  1
  O  O25  1  0.97481700  0.77802200  0.74081000  1
  O  O26  1  0.52518300  0.22197800  0.24081000  1
  O  O27  1  0.02518300  0.77802200  0.25919000  1
  O  O28  1  0.52518300  0.77802200  0.24081000  1
  O  O29  1  0.02518300  0.22197800  0.25919000  1
  O  O30  1  0.47481700  0.77802200  0.75919000  1
  O  O31  1  0.97481700  0.22197800  0.74081000  1
  O  O32  1  0.70997300  0.00000000  0.90206600  1
  O  O33  1  0.20997300  0.00000000  0.59793400  1
  O  O34  1  0.29002700  0.00000000  0.09793400  1
  O  O35  1  0.79002700  0.00000000  0.40206600  1
  O  O36  1  0.73120600  0.50000000  0.84637800  1
  O  O37  1  0.23120600  0.50000000  0.65362200  1
  O  O38  1  0.26879400  0.50000000  0.15362200  1
  O  O39  1  0.76879400  0.50000000  0.34637800  1
