# generated using pymatgen
data_TlI
_symmetry_space_group_name_H-M   'P 1'
_cell_length_a   7.08725562
_cell_length_b   7.08725562
_cell_length_c   5.30780300
_cell_angle_alpha   90.00000000
_cell_angle_beta   90.00000000
_cell_angle_gamma   140.92401466
_symmetry_Int_Tables_number   1
_chemical_formula_structural   TlI
_chemical_formula_sum   'Tl2 I2'
_cell_volume   168.05563545
_cell_formula_units_Z   2
loop_
 _symmetry_equiv_pos_site_id
 _symmetry_equiv_pos_as_xyz
  1  'x, y, z'
loop_
 _atom_site_type_symbol
 _atom_site_label
 _atom_site_symmetry_multiplicity
 _atom_site_fract_x
 _atom_site_fract_y
 _atom_site_fract_z
 _atom_site_occupancy
  Tl  Tl0  1  0.38601300  0.61398700  0.75000000  1
  Tl  Tl1  1  0.61398700  0.38601300  0.25000000  1
  I  I2  1  0.13258400  0.86741600  0.75000000  1
  I  I3  1  0.86741600  0.13258400  0.25000000  1
