# generated using pymatgen
data_EuCl2
_symmetry_space_group_name_H-M   'P 1'
_cell_length_a   4.55817400
_cell_length_b   7.54576500
_cell_length_c   9.04117000
_cell_angle_alpha   90.00000000
_cell_angle_beta   90.00000000
_cell_angle_gamma   90.00000000
_symmetry_Int_Tables_number   1
_chemical_formula_structural   EuCl2
_chemical_formula_sum   'Eu4 Cl8'
_cell_volume   310.97022694
_cell_formula_units_Z   4
loop_
 _symmetry_equiv_pos_site_id
 _symmetry_equiv_pos_as_xyz
  1  'x, y, z'
loop_
 _atom_site_type_symbol
 _atom_site_label
 _atom_site_symmetry_multiplicity
 _atom_site_fract_x
 _atom_site_fract_y
 _atom_site_fract_z
 _atom_site_occupancy
  Eu  Eu0  1  0.25000000  0.24510200  0.89037000  1
  Eu  Eu1  1  0.75000000  0.75489800  0.10963000  1
  Eu  Eu2  1  0.25000000  0.74510200  0.60963000  1
  Eu  Eu3  1  0.75000000  0.25489800  0.39037000  1
  Cl  Cl4  1  0.25000000  0.01809400  0.16155400  1
  Cl  Cl5  1  0.75000000  0.98190600  0.83844600  1
  Cl  Cl6  1  0.25000000  0.51809400  0.33844600  1
  Cl  Cl7  1  0.75000000  0.48190600  0.66155400  1
  Cl  Cl8  1  0.75000000  0.35883400  0.07595400  1
  Cl  Cl9  1  0.25000000  0.64116600  0.92404600  1
  Cl  Cl10  1  0.75000000  0.85883400  0.42404600  1
  Cl  Cl11  1  0.25000000  0.14116600  0.57595400  1
