# generated using pymatgen
data_CsBrF
_symmetry_space_group_name_H-M   'P 1'
_cell_length_a   10.54838836
_cell_length_b   10.54838836
_cell_length_c   10.54838836
_cell_angle_alpha   155.92765279
_cell_angle_beta   155.92765279
_cell_angle_gamma   34.30366067
_symmetry_Int_Tables_number   1
_chemical_formula_structural   CsBrF
_chemical_formula_sum   'Cs2 Br2 F2'
_cell_volume   195.07197432
_cell_formula_units_Z   2
loop_
 _symmetry_equiv_pos_site_id
 _symmetry_equiv_pos_as_xyz
  1  'x, y, z'
loop_
 _atom_site_type_symbol
 _atom_site_label
 _atom_site_symmetry_multiplicity
 _atom_site_fract_x
 _atom_site_fract_y
 _atom_site_fract_z
 _atom_site_occupancy
  Cs  Cs0  1  0.66924900  0.66924900  0.00000000  1
  Cs  Cs1  1  0.33075100  0.33075100  0.00000000  1
  Br  Br2  1  0.05986900  0.05986900  0.00000000  1
  Br  Br3  1  0.94013100  0.94013100  0.00000000  1
  F  F4  1  0.81673300  0.81673300  0.00000000  1
  F  F5  1  0.18326700  0.18326700  0.00000000  1
