# generated using pymatgen
data_CsICl2
_symmetry_space_group_name_H-M   'P 1'
_cell_length_a   5.62441836
_cell_length_b   5.62441836
_cell_length_c   5.62441872
_cell_angle_alpha   71.49935412
_cell_angle_beta   71.49935412
_cell_angle_gamma   71.49935863
_symmetry_Int_Tables_number   1
_chemical_formula_structural   CsICl2
_chemical_formula_sum   'Cs1 I1 Cl2'
_cell_volume   155.29692419
_cell_formula_units_Z   1
loop_
 _symmetry_equiv_pos_site_id
 _symmetry_equiv_pos_as_xyz
  1  'x, y, z'
loop_
 _atom_site_type_symbol
 _atom_site_label
 _atom_site_symmetry_multiplicity
 _atom_site_fract_x
 _atom_site_fract_y
 _atom_site_fract_z
 _atom_site_occupancy
  Cs  Cs0  1  0.00000000  0.00000000  0.00000000  1
  I  I1  1  0.50000000  0.50000000  0.50000000  1
  Cl  Cl2  1  0.70649300  0.70649300  0.70649300  1
  Cl  Cl3  1  0.29350700  0.29350700  0.29350700  1
