# generated using pymatgen
data_RbCuCl3
_symmetry_space_group_name_H-M   'P 1'
_cell_length_a   6.41336000
_cell_length_b   7.15319600
_cell_length_c   11.94679400
_cell_angle_alpha   90.00000000
_cell_angle_beta   90.00000000
_cell_angle_gamma   90.00000000
_symmetry_Int_Tables_number   1
_chemical_formula_structural   RbCuCl3
_chemical_formula_sum   'Rb4 Cu4 Cl12'
_cell_volume   548.07137360
_cell_formula_units_Z   4
loop_
 _symmetry_equiv_pos_site_id
 _symmetry_equiv_pos_as_xyz
  1  'x, y, z'
loop_
 _atom_site_type_symbol
 _atom_site_label
 _atom_site_symmetry_multiplicity
 _atom_site_fract_x
 _atom_site_fract_y
 _atom_site_fract_z
 _atom_site_occupancy
  Rb  Rb0  1  0.25000000  0.50000000  0.83823800  1
  Rb  Rb1  1  0.75000000  0.00000000  0.66176200  1
  Rb  Rb2  1  0.75000000  0.50000000  0.16176200  1
  Rb  Rb3  1  0.25000000  0.00000000  0.33823800  1
  Cu  Cu4  1  0.50000000  0.00000000  0.00000000  1
  Cu  Cu5  1  0.00000000  0.50000000  0.50000000  1
  Cu  Cu6  1  0.50000000  0.50000000  0.50000000  1
  Cu  Cu7  1  0.00000000  0.00000000  0.00000000  1
  Cl  Cl8  1  0.75000000  0.50000000  0.64422700  1
  Cl  Cl9  1  0.25000000  0.00000000  0.85577300  1
  Cl  Cl10  1  0.25000000  0.50000000  0.35577300  1
  Cl  Cl11  1  0.75000000  0.00000000  0.14422700  1
  Cl  Cl12  1  0.67489900  0.75927700  0.91404900  1
  Cl  Cl13  1  0.17489900  0.74072300  0.58595100  1
  Cl  Cl14  1  0.32510100  0.25927700  0.58595100  1
  Cl  Cl15  1  0.82510100  0.24072300  0.91404900  1
  Cl  Cl16  1  0.17489900  0.75927700  0.08595100  1
  Cl  Cl17  1  0.67489900  0.74072300  0.41404900  1
  Cl  Cl18  1  0.82510100  0.25927700  0.41404900  1
  Cl  Cl19  1  0.32510100  0.24072300  0.08595100  1
