# generated using pymatgen
data_BiOF
_symmetry_space_group_name_H-M   'P 1'
_cell_length_a   3.79749100
_cell_length_b   3.79749100
_cell_length_c   6.21707900
_cell_angle_alpha   90.00000000
_cell_angle_beta   90.00000000
_cell_angle_gamma   90.00000000
_symmetry_Int_Tables_number   1
_chemical_formula_structural   BiOF
_chemical_formula_sum   'Bi2 O2 F2'
_cell_volume   89.65611015
_cell_formula_units_Z   2
loop_
 _symmetry_equiv_pos_site_id
 _symmetry_equiv_pos_as_xyz
  1  'x, y, z'
loop_
 _atom_site_type_symbol
 _atom_site_label
 _atom_site_symmetry_multiplicity
 _atom_site_fract_x
 _atom_site_fract_y
 _atom_site_fract_z
 _atom_site_occupancy
  Bi  Bi0  1  0.00000000  0.50000000  0.79068400  1
  Bi  Bi1  1  0.50000000  0.00000000  0.20931600  1
  O  O2  1  0.00000000  0.00000000  0.00000000  1
  O  O3  1  0.50000000  0.50000000  0.00000000  1
  F  F4  1  0.50000000  0.00000000  0.64355300  1
  F  F5  1  0.00000000  0.50000000  0.35644700  1
