# generated using pymatgen
data_Tm2S3
_symmetry_space_group_name_H-M   'P 1'
_cell_length_a   3.88645800
_cell_length_b   10.89918800
_cell_length_c   11.15483492
_cell_angle_alpha   71.14692992
_cell_angle_beta   90.00000000
_cell_angle_gamma   90.00000000
_symmetry_Int_Tables_number   1
_chemical_formula_structural   Tm2S3
_chemical_formula_sum   'Tm8 S12'
_cell_volume   447.16028063
_cell_formula_units_Z   4
loop_
 _symmetry_equiv_pos_site_id
 _symmetry_equiv_pos_as_xyz
  1  'x, y, z'
loop_
 _atom_site_type_symbol
 _atom_site_label
 _atom_site_symmetry_multiplicity
 _atom_site_fract_x
 _atom_site_fract_y
 _atom_site_fract_z
 _atom_site_occupancy
  Tm  Tm0  1  0.25000000  0.81726900  0.00278700  1
  Tm  Tm1  1  0.75000000  0.18273100  0.99721300  1
  Tm  Tm2  1  0.25000000  0.45658700  0.19024400  1
  Tm  Tm3  1  0.75000000  0.54341300  0.80975600  1
  Tm  Tm4  1  0.25000000  0.06793700  0.33173600  1
  Tm  Tm5  1  0.75000000  0.93206300  0.66826400  1
  Tm  Tm6  1  0.25000000  0.33942200  0.58360200  1
  Tm  Tm7  1  0.75000000  0.66057800  0.41639800  1
  S  S8  1  0.25000000  0.02281100  0.11323400  1
  S  S9  1  0.75000000  0.97718900  0.88676600  1
  S  S10  1  0.25000000  0.69105500  0.25040100  1
  S  S11  1  0.75000000  0.30894500  0.74959900  1
  S  S12  1  0.25000000  0.10203900  0.56359100  1
  S  S13  1  0.75000000  0.89796100  0.43640900  1
  S  S14  1  0.25000000  0.58165200  0.59828500  1
  S  S15  1  0.75000000  0.41834800  0.40171500  1
  S  S16  1  0.25000000  0.75378100  0.77691300  1
  S  S17  1  0.75000000  0.24621900  0.22308700  1
  S  S18  1  0.25000000  0.38977200  0.96309200  1
  S  S19  1  0.75000000  0.61022800  0.03690800  1
