# generated using pymatgen
data_SrI2
_symmetry_space_group_name_H-M   'P 1'
_cell_length_a   8.03764700
_cell_length_b   8.32082600
_cell_length_c   15.58277500
_cell_angle_alpha   90.00000000
_cell_angle_beta   90.00000000
_cell_angle_gamma   90.00000000
_symmetry_Int_Tables_number   1
_chemical_formula_structural   SrI2
_chemical_formula_sum   'Sr8 I16'
_cell_volume   1042.17384370
_cell_formula_units_Z   8
loop_
 _symmetry_equiv_pos_site_id
 _symmetry_equiv_pos_as_xyz
  1  'x, y, z'
loop_
 _atom_site_type_symbol
 _atom_site_label
 _atom_site_symmetry_multiplicity
 _atom_site_fract_x
 _atom_site_fract_y
 _atom_site_fract_z
 _atom_site_occupancy
  Sr  Sr0  1  0.72306500  0.55026600  0.11094500  1
  Sr  Sr1  1  0.22306500  0.44973400  0.38905500  1
  Sr  Sr2  1  0.77693500  0.05026600  0.88905500  1
  Sr  Sr3  1  0.27693500  0.94973400  0.61094500  1
  Sr  Sr4  1  0.27693500  0.44973400  0.88905500  1
  Sr  Sr5  1  0.77693500  0.55026600  0.61094500  1
  Sr  Sr6  1  0.22306500  0.94973400  0.11094500  1
  Sr  Sr7  1  0.72306500  0.05026600  0.38905500  1
  I  I8  1  0.84084800  0.89177900  0.20319700  1
  I  I9  1  0.34084800  0.10822100  0.29680300  1
  I  I10  1  0.65915200  0.39177900  0.79680300  1
  I  I11  1  0.15915200  0.60822100  0.70319700  1
  I  I12  1  0.15915200  0.10822100  0.79680300  1
  I  I13  1  0.65915200  0.89177900  0.70319700  1
  I  I14  1  0.34084800  0.60822100  0.20319700  1
  I  I15  1  0.84084800  0.39177900  0.29680300  1
  I  I16  1  0.99470000  0.73246300  0.96810000  1
  I  I17  1  0.49470000  0.26753700  0.53190000  1
  I  I18  1  0.50530000  0.23246300  0.03190000  1
  I  I19  1  0.00530000  0.76753700  0.46810000  1
  I  I20  1  0.00530000  0.26753700  0.03190000  1
  I  I21  1  0.50530000  0.73246300  0.46810000  1
  I  I22  1  0.49470000  0.76753700  0.96810000  1
  I  I23  1  0.99470000  0.23246300  0.53190000  1
