# generated using pymatgen
data_Sm4Bi3
_symmetry_space_group_name_H-M   'P 1'
_cell_length_a   8.29716596
_cell_length_b   8.29716596
_cell_length_c   8.29716596
_cell_angle_alpha   109.47122063
_cell_angle_beta   109.47122063
_cell_angle_gamma   109.47122063
_symmetry_Int_Tables_number   1
_chemical_formula_structural   Sm4Bi3
_chemical_formula_sum   'Sm8 Bi6'
_cell_volume   439.71111105
_cell_formula_units_Z   2
loop_
 _symmetry_equiv_pos_site_id
 _symmetry_equiv_pos_as_xyz
  1  'x, y, z'
loop_
 _atom_site_type_symbol
 _atom_site_label
 _atom_site_symmetry_multiplicity
 _atom_site_fract_x
 _atom_site_fract_y
 _atom_site_fract_z
 _atom_site_occupancy
  Sm  Sm0  1  0.50000000  0.00000000  0.14447200  1
  Sm  Sm1  1  0.64447200  0.50000000  0.00000000  1
  Sm  Sm2  1  0.00000000  0.64447200  0.50000000  1
  Sm  Sm3  1  0.85552800  0.85552800  0.85552800  1
  Sm  Sm4  1  0.00000000  0.14447200  0.50000000  1
  Sm  Sm5  1  0.35552800  0.35552800  0.35552800  1
  Sm  Sm6  1  0.14447200  0.50000000  0.00000000  1
  Sm  Sm7  1  0.50000000  0.00000000  0.64447200  1
  Bi  Bi8  1  0.62500000  0.75000000  0.37500000  1
  Bi  Bi9  1  0.75000000  0.37500000  0.62500000  1
  Bi  Bi10  1  0.25000000  0.12500000  0.87500000  1
  Bi  Bi11  1  0.37500000  0.62500000  0.75000000  1
  Bi  Bi12  1  0.12500000  0.87500000  0.25000000  1
  Bi  Bi13  1  0.87500000  0.25000000  0.12500000  1
