# generated using pymatgen
data_PbCl2
_symmetry_space_group_name_H-M   'P 1'
_cell_length_a   4.57924100
_cell_length_b   7.78987300
_cell_length_c   9.35574100
_cell_angle_alpha   90.00000000
_cell_angle_beta   90.00000000
_cell_angle_gamma   90.00000000
_symmetry_Int_Tables_number   1
_chemical_formula_structural   PbCl2
_chemical_formula_sum   'Pb4 Cl8'
_cell_volume   333.73524074
_cell_formula_units_Z   4
loop_
 _symmetry_equiv_pos_site_id
 _symmetry_equiv_pos_as_xyz
  1  'x, y, z'
loop_
 _atom_site_type_symbol
 _atom_site_label
 _atom_site_symmetry_multiplicity
 _atom_site_fract_x
 _atom_site_fract_y
 _atom_site_fract_z
 _atom_site_occupancy
  Pb  Pb0  1  0.25000000  0.26455800  0.91592200  1
  Pb  Pb1  1  0.75000000  0.73544200  0.08407800  1
  Pb  Pb2  1  0.25000000  0.76455800  0.58407800  1
  Pb  Pb3  1  0.75000000  0.23544200  0.41592200  1
  Cl  Cl4  1  0.25000000  0.48849700  0.15446300  1
  Cl  Cl5  1  0.75000000  0.51150300  0.84553700  1
  Cl  Cl6  1  0.25000000  0.98849700  0.34553700  1
  Cl  Cl7  1  0.75000000  0.01150300  0.65446300  1
  Cl  Cl8  1  0.75000000  0.64214400  0.41726000  1
  Cl  Cl9  1  0.25000000  0.35785600  0.58274000  1
  Cl  Cl10  1  0.75000000  0.14214400  0.08274000  1
  Cl  Cl11  1  0.25000000  0.85785600  0.91726000  1
