# generated using pymatgen
data_EuI2
_symmetry_space_group_name_H-M   'P 1'
_cell_length_a   8.23768500
_cell_length_b   7.81652500
_cell_length_c   8.02929335
_cell_angle_alpha   80.77407614
_cell_angle_beta   90.00000000
_cell_angle_gamma   90.00000000
_symmetry_Int_Tables_number   1
_chemical_formula_structural   EuI2
_chemical_formula_sum   'Eu4 I8'
_cell_volume   510.31867643
_cell_formula_units_Z   4
loop_
 _symmetry_equiv_pos_site_id
 _symmetry_equiv_pos_as_xyz
  1  'x, y, z'
loop_
 _atom_site_type_symbol
 _atom_site_label
 _atom_site_symmetry_multiplicity
 _atom_site_fract_x
 _atom_site_fract_y
 _atom_site_fract_z
 _atom_site_occupancy
  Eu  Eu0  1  0.94564600  0.21540700  0.18987400  1
  Eu  Eu1  1  0.44564600  0.78459300  0.31012600  1
  Eu  Eu2  1  0.05435400  0.78459300  0.81012600  1
  Eu  Eu3  1  0.55435400  0.21540700  0.68987400  1
  I  I4  1  0.76936600  0.92952800  0.50474300  1
  I  I5  1  0.26936600  0.07047200  0.99525700  1
  I  I6  1  0.23063400  0.07047200  0.49525700  1
  I  I7  1  0.73063400  0.92952800  0.00474300  1
  I  I8  1  0.88909700  0.40580700  0.79220200  1
  I  I9  1  0.38909700  0.59419300  0.70779800  1
  I  I10  1  0.11090300  0.59419300  0.20779800  1
  I  I11  1  0.61090300  0.40580700  0.29220200  1
