# generated using pymatgen
data_Hg3Cl4O
_symmetry_space_group_name_H-M   'P 1'
_cell_length_a   9.53725500
_cell_length_b   9.53725500
_cell_length_c   9.53725500
_cell_angle_alpha   90.00000000
_cell_angle_beta   90.00000000
_cell_angle_gamma   90.00000000
_symmetry_Int_Tables_number   1
_chemical_formula_structural   Hg3Cl4O
_chemical_formula_sum   'Hg12 Cl16 O4'
_cell_volume   867.50139911
_cell_formula_units_Z   4
loop_
 _symmetry_equiv_pos_site_id
 _symmetry_equiv_pos_as_xyz
  1  'x, y, z'
loop_
 _atom_site_type_symbol
 _atom_site_label
 _atom_site_symmetry_multiplicity
 _atom_site_fract_x
 _atom_site_fract_y
 _atom_site_fract_z
 _atom_site_occupancy
  Hg  Hg0  1  0.26941300  0.81910700  0.01758900  1
  Hg  Hg1  1  0.76941300  0.68089300  0.98241100  1
  Hg  Hg2  1  0.73058700  0.31910700  0.48241100  1
  Hg  Hg3  1  0.68089300  0.98241100  0.76941300  1
  Hg  Hg4  1  0.48241100  0.73058700  0.31910700  1
  Hg  Hg5  1  0.98241100  0.76941300  0.68089300  1
  Hg  Hg6  1  0.81910700  0.01758900  0.26941300  1
  Hg  Hg7  1  0.01758900  0.26941300  0.81910700  1
  Hg  Hg8  1  0.31910700  0.48241100  0.73058700  1
  Hg  Hg9  1  0.18089300  0.51758900  0.23058700  1
  Hg  Hg10  1  0.51758900  0.23058700  0.18089300  1
  Hg  Hg11  1  0.23058700  0.18089300  0.51758900  1
  Cl  Cl12  1  0.19474400  0.97033300  0.83995400  1
  Cl  Cl13  1  0.69474400  0.52966700  0.16004600  1
  Cl  Cl14  1  0.80525600  0.47033300  0.66004600  1
  Cl  Cl15  1  0.52966700  0.16004600  0.69474400  1
  Cl  Cl16  1  0.66004600  0.80525600  0.47033300  1
  Cl  Cl17  1  0.16004600  0.69474400  0.52966700  1
  Cl  Cl18  1  0.97033300  0.83995400  0.19474400  1
  Cl  Cl19  1  0.83995400  0.19474400  0.97033300  1
  Cl  Cl20  1  0.57046300  0.92953700  0.07046300  1
  Cl  Cl21  1  0.42953700  0.42953700  0.42953700  1
  Cl  Cl22  1  0.07046300  0.57046300  0.92953700  1
  Cl  Cl23  1  0.92953700  0.07046300  0.57046300  1
  Cl  Cl24  1  0.30525600  0.02966700  0.33995400  1
  Cl  Cl25  1  0.33995400  0.30525600  0.02966700  1
  Cl  Cl26  1  0.02966700  0.33995400  0.30525600  1
  Cl  Cl27  1  0.47033300  0.66004600  0.80525600  1
  O  O28  1  0.82146400  0.82146400  0.82146400  1
  O  O29  1  0.17853600  0.32146400  0.67853600  1
  O  O30  1  0.32146400  0.67853600  0.17853600  1
  O  O31  1  0.67853600  0.17853600  0.32146400  1
