# generated using pymatgen
data_KFeBr3
_symmetry_space_group_name_H-M   'P 1'
_cell_length_a   4.06626100
_cell_length_b   9.52606400
_cell_length_c   15.07700300
_cell_angle_alpha   90.00000000
_cell_angle_beta   90.00000000
_cell_angle_gamma   90.00000000
_symmetry_Int_Tables_number   1
_chemical_formula_structural   KFeBr3
_chemical_formula_sum   'K4 Fe4 Br12'
_cell_volume   584.01468472
_cell_formula_units_Z   4
loop_
 _symmetry_equiv_pos_site_id
 _symmetry_equiv_pos_as_xyz
  1  'x, y, z'
loop_
 _atom_site_type_symbol
 _atom_site_label
 _atom_site_symmetry_multiplicity
 _atom_site_fract_x
 _atom_site_fract_y
 _atom_site_fract_z
 _atom_site_occupancy
  K  K0  1  0.75000000  0.54876600  0.82514900  1
  K  K1  1  0.75000000  0.04876600  0.67485100  1
  K  K2  1  0.25000000  0.45123400  0.17485100  1
  K  K3  1  0.25000000  0.95123400  0.32514900  1
  Fe  Fe4  1  0.75000000  0.33818500  0.45010900  1
  Fe  Fe5  1  0.25000000  0.16181500  0.95010900  1
  Fe  Fe6  1  0.25000000  0.66181500  0.54989100  1
  Fe  Fe7  1  0.75000000  0.83818500  0.04989100  1
  Br  Br8  1  0.75000000  0.23619400  0.29637900  1
  Br  Br9  1  0.75000000  0.31928900  0.00702700  1
  Br  Br10  1  0.25000000  0.26380600  0.79637900  1
  Br  Br11  1  0.25000000  0.51911800  0.40270200  1
  Br  Br12  1  0.25000000  0.76380600  0.70362100  1
  Br  Br13  1  0.75000000  0.98088200  0.90270200  1
  Br  Br14  1  0.25000000  0.01911800  0.09729800  1
  Br  Br15  1  0.75000000  0.73619400  0.20362100  1
  Br  Br16  1  0.25000000  0.18071100  0.50702700  1
  Br  Br17  1  0.75000000  0.81928900  0.49297300  1
  Br  Br18  1  0.25000000  0.68071100  0.99297300  1
  Br  Br19  1  0.75000000  0.48088200  0.59729800  1
