# generated using pymatgen
data_Tl3PbI5
_symmetry_space_group_name_H-M   'P 1'
_cell_length_a   9.12259900
_cell_length_b   9.83322800
_cell_length_c   16.58972000
_cell_angle_alpha   90.00000000
_cell_angle_beta   90.00000000
_cell_angle_gamma   90.00000000
_symmetry_Int_Tables_number   1
_chemical_formula_structural   Tl3PbI5
_chemical_formula_sum   'Tl12 Pb4 I20'
_cell_volume   1488.17412902
_cell_formula_units_Z   4
loop_
 _symmetry_equiv_pos_site_id
 _symmetry_equiv_pos_as_xyz
  1  'x, y, z'
loop_
 _atom_site_type_symbol
 _atom_site_label
 _atom_site_symmetry_multiplicity
 _atom_site_fract_x
 _atom_site_fract_y
 _atom_site_fract_z
 _atom_site_occupancy
  Tl  Tl0  1  0.77596800  0.70350100  0.44678400  1
  Tl  Tl1  1  0.27596800  0.79649900  0.55321600  1
  Tl  Tl2  1  0.22403200  0.20350100  0.05321600  1
  Tl  Tl3  1  0.72403200  0.29649900  0.94678400  1
  Tl  Tl4  1  0.92097100  0.16806000  0.52593700  1
  Tl  Tl5  1  0.42097100  0.33194000  0.47406300  1
  Tl  Tl6  1  0.07902900  0.66806000  0.97406300  1
  Tl  Tl7  1  0.57902900  0.83194000  0.02593700  1
  Tl  Tl8  1  0.93797300  0.09063200  0.21691900  1
  Tl  Tl9  1  0.43797300  0.40936800  0.78308100  1
  Tl  Tl10  1  0.06202700  0.59063200  0.28308100  1
  Tl  Tl11  1  0.56202700  0.90936800  0.71691900  1
  Pb  Pb12  1  0.57872500  0.45122700  0.20538400  1
  Pb  Pb13  1  0.07872500  0.04877300  0.79461600  1
  Pb  Pb14  1  0.42127500  0.95122700  0.29461600  1
  Pb  Pb15  1  0.92127500  0.54877300  0.70538400  1
  I  I16  1  0.72782800  0.65071600  0.85290300  1
  I  I17  1  0.22782800  0.84928400  0.14709700  1
  I  I18  1  0.27217200  0.15071600  0.64709700  1
  I  I19  1  0.77217200  0.34928400  0.35290300  1
  I  I20  1  0.27234600  0.28510400  0.27630700  1
  I  I21  1  0.77234600  0.21489600  0.72369300  1
  I  I22  1  0.72765400  0.78510400  0.22369300  1
  I  I23  1  0.22765400  0.71489600  0.77630700  1
  I  I24  1  0.91502600  0.85518800  0.63566800  1
  I  I25  1  0.41502600  0.64481200  0.36433200  1
  I  I26  1  0.08497400  0.35518800  0.86433200  1
  I  I27  1  0.58497400  0.14481200  0.13566800  1
  I  I28  1  0.59737800  0.55923000  0.60967700  1
  I  I29  1  0.09737800  0.94077000  0.39032300  1
  I  I30  1  0.40262200  0.05923000  0.89032300  1
  I  I31  1  0.90262200  0.44077000  0.10967700  1
  I  I32  1  0.07974700  0.49645800  0.52745100  1
  I  I33  1  0.57974700  0.00354200  0.47254900  1
  I  I34  1  0.92025300  0.99645800  0.97254900  1
  I  I35  1  0.42025300  0.50354200  0.02745100  1
