# generated using pymatgen
data_TlBrO4
_symmetry_space_group_name_H-M   'P 1'
_cell_length_a   6.27196600
_cell_length_b   7.89389300
_cell_length_c   9.39251800
_cell_angle_alpha   90.00000000
_cell_angle_beta   90.00000000
_cell_angle_gamma   90.00000000
_symmetry_Int_Tables_number   1
_chemical_formula_structural   TlBrO4
_chemical_formula_sum   'Tl4 Br4 O16'
_cell_volume   465.02571240
_cell_formula_units_Z   4
loop_
 _symmetry_equiv_pos_site_id
 _symmetry_equiv_pos_as_xyz
  1  'x, y, z'
loop_
 _atom_site_type_symbol
 _atom_site_label
 _atom_site_symmetry_multiplicity
 _atom_site_fract_x
 _atom_site_fract_y
 _atom_site_fract_z
 _atom_site_occupancy
  Tl  Tl0  1  0.25000000  0.33311600  0.67580600  1
  Tl  Tl1  1  0.75000000  0.66688400  0.32419400  1
  Tl  Tl2  1  0.75000000  0.83311600  0.82419400  1
  Tl  Tl3  1  0.25000000  0.16688400  0.17580600  1
  Br  Br4  1  0.25000000  0.81478400  0.57449600  1
  Br  Br5  1  0.75000000  0.18521600  0.42550400  1
  Br  Br6  1  0.75000000  0.31478400  0.92550400  1
  Br  Br7  1  0.25000000  0.68521600  0.07449600  1
  O  O8  1  0.53546000  0.30831800  0.41767000  1
  O  O9  1  0.03546000  0.69168200  0.58233000  1
  O  O10  1  0.46454000  0.80831800  0.08233000  1
  O  O11  1  0.96454000  0.19168200  0.91767000  1
  O  O12  1  0.46454000  0.69168200  0.58233000  1
  O  O13  1  0.96454000  0.30831800  0.41767000  1
  O  O14  1  0.53546000  0.19168200  0.91767000  1
  O  O15  1  0.03546000  0.80831800  0.08233000  1
  O  O16  1  0.25000000  0.55612800  0.21293900  1
  O  O17  1  0.75000000  0.44387200  0.78706100  1
  O  O18  1  0.75000000  0.05612800  0.28706100  1
  O  O19  1  0.25000000  0.94387200  0.71293900  1
  O  O20  1  0.25000000  0.57742700  0.92439800  1
  O  O21  1  0.75000000  0.42257300  0.07560200  1
  O  O22  1  0.75000000  0.07742700  0.57560200  1
  O  O23  1  0.25000000  0.92257300  0.42439800  1
