# generated using pymatgen
data_Sn3BrF5
_symmetry_space_group_name_H-M   'P 1'
_cell_length_a   12.91274200
_cell_length_b   4.33112100
_cell_length_c   13.70482268
_cell_angle_alpha   71.47925248
_cell_angle_beta   90.00000000
_cell_angle_gamma   90.00000000
_symmetry_Int_Tables_number   1
_chemical_formula_structural   Sn3BrF5
_chemical_formula_sum   'Sn12 Br4 F20'
_cell_volume   726.76858098
_cell_formula_units_Z   4
loop_
 _symmetry_equiv_pos_site_id
 _symmetry_equiv_pos_as_xyz
  1  'x, y, z'
loop_
 _atom_site_type_symbol
 _atom_site_label
 _atom_site_symmetry_multiplicity
 _atom_site_fract_x
 _atom_site_fract_y
 _atom_site_fract_z
 _atom_site_occupancy
  Sn  Sn0  1  0.12496700  0.01923800  0.34441900  1
  Sn  Sn1  1  0.62496700  0.98076200  0.15558100  1
  Sn  Sn2  1  0.87503300  0.98076200  0.65558100  1
  Sn  Sn3  1  0.37503300  0.01923800  0.84441900  1
  Sn  Sn4  1  0.34258700  0.44827500  0.13211500  1
  Sn  Sn5  1  0.84258700  0.55172500  0.36788500  1
  Sn  Sn6  1  0.65741300  0.55172500  0.86788500  1
  Sn  Sn7  1  0.15741300  0.44827500  0.63211500  1
  Sn  Sn8  1  0.39812700  0.54070700  0.39782100  1
  Sn  Sn9  1  0.89812700  0.45929300  0.10217900  1
  Sn  Sn10  1  0.60187300  0.45929300  0.60217900  1
  Sn  Sn11  1  0.10187300  0.54070700  0.89782100  1
  Br  Br12  1  0.12432500  0.86539800  0.12279700  1
  Br  Br13  1  0.62432500  0.13460200  0.37720300  1
  Br  Br14  1  0.87567500  0.13460200  0.87720300  1
  Br  Br15  1  0.37567500  0.86539800  0.62279700  1
  F  F16  1  0.34673900  0.14079100  0.34225200  1
  F  F17  1  0.84673900  0.85920900  0.15774800  1
  F  F18  1  0.65326100  0.85920900  0.65774800  1
  F  F19  1  0.15326100  0.14079100  0.84225200  1
  F  F20  1  0.01090400  0.62470400  0.37585800  1
  F  F21  1  0.51090400  0.37529600  0.12414200  1
  F  F22  1  0.98909600  0.37529600  0.62414200  1
  F  F23  1  0.48909600  0.62470400  0.87585800  1
  F  F24  1  0.37916300  0.91262200  0.01221100  1
  F  F25  1  0.87916300  0.08737800  0.48778900  1
  F  F26  1  0.62083700  0.08737800  0.98778900  1
  F  F27  1  0.12083700  0.91262200  0.51221100  1
  F  F28  1  0.22680500  0.58555000  0.39542800  1
  F  F29  1  0.72680500  0.41445000  0.10457200  1
  F  F30  1  0.77319500  0.41445000  0.60457200  1
  F  F31  1  0.27319500  0.58555000  0.89542800  1
  F  F32  1  0.10024600  0.74441000  0.72650300  1
  F  F33  1  0.60024600  0.25559000  0.77349700  1
  F  F34  1  0.89975400  0.25559000  0.27349700  1
  F  F35  1  0.39975400  0.74441000  0.22650300  1
