# generated using pymatgen
data_K2ZnBr4
_symmetry_space_group_name_H-M   'P 1'
_cell_length_a   7.63347900
_cell_length_b   7.36381100
_cell_length_c   9.32637292
_cell_angle_alpha   71.12934575
_cell_angle_beta   90.00000000
_cell_angle_gamma   90.00000000
_symmetry_Int_Tables_number   1
_chemical_formula_structural   K2ZnBr4
_chemical_formula_sum   'K4 Zn2 Br8'
_cell_volume   496.07157299
_cell_formula_units_Z   2
loop_
 _symmetry_equiv_pos_site_id
 _symmetry_equiv_pos_as_xyz
  1  'x, y, z'
loop_
 _atom_site_type_symbol
 _atom_site_label
 _atom_site_symmetry_multiplicity
 _atom_site_fract_x
 _atom_site_fract_y
 _atom_site_fract_z
 _atom_site_occupancy
  K  K0  1  0.75000000  0.22142700  0.57408500  1
  K  K1  1  0.25000000  0.77857300  0.42591500  1
  K  K2  1  0.75000000  0.29434000  0.04464700  1
  K  K3  1  0.25000000  0.70566000  0.95535300  1
  Zn  Zn4  1  0.75000000  0.71805300  0.20613100  1
  Zn  Zn5  1  0.25000000  0.28194700  0.79386900  1
  Br  Br6  1  0.75000000  0.89312200  0.93520700  1
  Br  Br7  1  0.25000000  0.10687800  0.06479300  1
  Br  Br8  1  0.75000000  0.92522200  0.36279200  1
  Br  Br9  1  0.25000000  0.07477800  0.63720800  1
  Br  Br10  1  0.00079000  0.49975900  0.26639900  1
  Br  Br11  1  0.50079000  0.50024100  0.73360100  1
  Br  Br12  1  0.99921000  0.50024100  0.73360100  1
  Br  Br13  1  0.49921000  0.49975900  0.26639900  1
