# generated using pymatgen
data_BaZnCl4
_symmetry_space_group_name_H-M   'P 1'
_cell_length_a   6.59373700
_cell_length_b   6.94236700
_cell_length_c   15.59730500
_cell_angle_alpha   90.00000000
_cell_angle_beta   90.00000000
_cell_angle_gamma   90.00000000
_symmetry_Int_Tables_number   1
_chemical_formula_structural   BaZnCl4
_chemical_formula_sum   'Ba4 Zn4 Cl16'
_cell_volume   713.98445092
_cell_formula_units_Z   4
loop_
 _symmetry_equiv_pos_site_id
 _symmetry_equiv_pos_as_xyz
  1  'x, y, z'
loop_
 _atom_site_type_symbol
 _atom_site_label
 _atom_site_symmetry_multiplicity
 _atom_site_fract_x
 _atom_site_fract_y
 _atom_site_fract_z
 _atom_site_occupancy
  Ba  Ba0  1  0.50000000  0.75000000  0.62907900  1
  Ba  Ba1  1  0.00000000  0.25000000  0.87092100  1
  Ba  Ba2  1  0.50000000  0.25000000  0.37092100  1
  Ba  Ba3  1  0.00000000  0.75000000  0.12907900  1
  Zn  Zn4  1  0.00000000  0.75000000  0.39056500  1
  Zn  Zn5  1  0.50000000  0.25000000  0.10943500  1
  Zn  Zn6  1  0.00000000  0.25000000  0.60943500  1
  Zn  Zn7  1  0.50000000  0.75000000  0.89056500  1
  Cl  Cl8  1  0.85380900  0.47364400  0.70012800  1
  Cl  Cl9  1  0.35380900  0.52635600  0.79987200  1
  Cl  Cl10  1  0.64619100  0.97364400  0.79987200  1
  Cl  Cl11  1  0.14619100  0.02635600  0.70012800  1
  Cl  Cl12  1  0.14619100  0.52635600  0.29987200  1
  Cl  Cl13  1  0.64619100  0.47364400  0.20012800  1
  Cl  Cl14  1  0.35380900  0.02635600  0.20012800  1
  Cl  Cl15  1  0.85380900  0.97364400  0.29987200  1
  Cl  Cl16  1  0.75413200  0.59293100  0.96238900  1
  Cl  Cl17  1  0.25413200  0.40706900  0.53761100  1
  Cl  Cl18  1  0.74586800  0.09293100  0.53761100  1
  Cl  Cl19  1  0.24586800  0.90706900  0.96238900  1
  Cl  Cl20  1  0.24586800  0.40706900  0.03761100  1
  Cl  Cl21  1  0.74586800  0.59293100  0.46238900  1
  Cl  Cl22  1  0.25413200  0.90706900  0.46238900  1
  Cl  Cl23  1  0.75413200  0.09293100  0.03761100  1
