# generated using pymatgen
data_KFeCl3
_symmetry_space_group_name_H-M   'P 1'
_cell_length_a   3.89084700
_cell_length_b   8.86234600
_cell_length_c   14.29641400
_cell_angle_alpha   90.00000000
_cell_angle_beta   90.00000000
_cell_angle_gamma   90.00000000
_symmetry_Int_Tables_number   1
_chemical_formula_structural   KFeCl3
_chemical_formula_sum   'K4 Fe4 Cl12'
_cell_volume   492.96940999
_cell_formula_units_Z   4
loop_
 _symmetry_equiv_pos_site_id
 _symmetry_equiv_pos_as_xyz
  1  'x, y, z'
loop_
 _atom_site_type_symbol
 _atom_site_label
 _atom_site_symmetry_multiplicity
 _atom_site_fract_x
 _atom_site_fract_y
 _atom_site_fract_z
 _atom_site_occupancy
  K  K0  1  0.75000000  0.05742900  0.67208800  1
  K  K1  1  0.25000000  0.94257100  0.32791200  1
  K  K2  1  0.75000000  0.55742900  0.82791200  1
  K  K3  1  0.25000000  0.44257100  0.17208800  1
  Fe  Fe4  1  0.75000000  0.33829100  0.44810000  1
  Fe  Fe5  1  0.25000000  0.66170900  0.55190000  1
  Fe  Fe6  1  0.75000000  0.83829100  0.05190000  1
  Fe  Fe7  1  0.25000000  0.16170900  0.94810000  1
  Cl  Cl8  1  0.25000000  0.02042100  0.09620400  1
  Cl  Cl9  1  0.75000000  0.97957900  0.90379600  1
  Cl  Cl10  1  0.25000000  0.52042100  0.40379600  1
  Cl  Cl11  1  0.75000000  0.47957900  0.59620400  1
  Cl  Cl12  1  0.25000000  0.18261100  0.50580700  1
  Cl  Cl13  1  0.75000000  0.81738900  0.49419300  1
  Cl  Cl14  1  0.25000000  0.68261100  0.99419300  1
  Cl  Cl15  1  0.75000000  0.31738900  0.00580700  1
  Cl  Cl16  1  0.75000000  0.23235900  0.29735700  1
  Cl  Cl17  1  0.25000000  0.76764100  0.70264300  1
  Cl  Cl18  1  0.75000000  0.73235900  0.20264300  1
  Cl  Cl19  1  0.25000000  0.26764100  0.79735700  1
