# generated using pymatgen
data_AsH8CN3O4
_symmetry_space_group_name_H-M   'P 1'
_cell_length_a   14.09135000
_cell_length_b   6.29838600
_cell_length_c   7.74940965
_cell_angle_alpha   88.06921861
_cell_angle_beta   90.00000000
_cell_angle_gamma   90.00000000
_symmetry_Int_Tables_number   1
_chemical_formula_structural   AsH8CN3O4
_chemical_formula_sum   'As4 H32 C4 N12 O16'
_cell_volume   687.39102582
_cell_formula_units_Z   4
loop_
 _symmetry_equiv_pos_site_id
 _symmetry_equiv_pos_as_xyz
  1  'x, y, z'
loop_
 _atom_site_type_symbol
 _atom_site_label
 _atom_site_symmetry_multiplicity
 _atom_site_fract_x
 _atom_site_fract_y
 _atom_site_fract_z
 _atom_site_occupancy
  As  As0  1  0.86684600  0.04118300  0.39607000  1
  As  As1  1  0.36684600  0.95881700  0.10393000  1
  As  As2  1  0.13315400  0.95881700  0.60393000  1
  As  As3  1  0.63315400  0.04118300  0.89607000  1
  H  H4  1  0.93161400  0.87319500  0.82651100  1
  H  H5  1  0.43161400  0.12680500  0.67348900  1
  H  H6  1  0.06838600  0.12680500  0.17348900  1
  H  H7  1  0.56838600  0.87319500  0.32651100  1
  H  H8  1  0.93763600  0.86961400  0.05555500  1
  H  H9  1  0.43763600  0.13038600  0.44444500  1
  H  H10  1  0.06236400  0.13038600  0.94444500  1
  H  H11  1  0.56236400  0.86961400  0.55555500  1
  H  H12  1  0.84908100  0.59479900  0.69982100  1
  H  H13  1  0.34908100  0.40520100  0.80017900  1
  H  H14  1  0.15091900  0.40520100  0.30017900  1
  H  H15  1  0.65091900  0.59479900  0.19982100  1
  H  H16  1  0.81181300  0.37184400  0.82125400  1
  H  H17  1  0.31181300  0.62815600  0.67874600  1
  H  H18  1  0.18818700  0.62815600  0.17874600  1
  H  H19  1  0.68818700  0.37184400  0.32125400  1
  H  H20  1  0.52733400  0.21809500  0.06365400  1
  H  H21  1  0.66472800  0.37340400  0.63591300  1
  H  H22  1  0.47266600  0.78190500  0.93634600  1
  H  H23  1  0.97266600  0.21809500  0.56365400  1
  H  H24  1  0.89407600  0.59565300  0.21556300  1
  H  H25  1  0.39407600  0.40434700  0.28443700  1
  H  H26  1  0.10592400  0.40434700  0.78443700  1
  H  H27  1  0.60592400  0.59565300  0.71556300  1
  H  H28  1  0.72240800  0.98639600  0.14787400  1
  H  H29  1  0.22240800  0.01360400  0.35212600  1
  H  H30  1  0.27759200  0.01360400  0.85212600  1
  H  H31  1  0.77759200  0.98639600  0.64787400  1
  H  H32  1  0.83527200  0.37340400  0.13591300  1
  H  H33  1  0.33527200  0.62659600  0.36408700  1
  H  H34  1  0.16472800  0.62659600  0.86408700  1
  H  H35  1  0.02733400  0.78190500  0.43634600  1
  C  C36  1  0.62116400  0.60728200  0.45571400  1
  C  C37  1  0.12116400  0.39271800  0.04428600  1
  C  C38  1  0.37883600  0.39271800  0.54428600  1
  C  C39  1  0.87883600  0.60728200  0.95571400  1
  N  N40  1  0.63159800  0.51645000  0.61277400  1
  N  N41  1  0.36840200  0.48355000  0.38722600  1
  N  N42  1  0.13159800  0.48355000  0.88722600  1
  N  N43  1  0.86840200  0.51645000  0.11277400  1
  N  N44  1  0.92146700  0.79752300  0.94271500  1
  N  N45  1  0.42146700  0.20247700  0.55728500  1
  N  N46  1  0.07853300  0.20247700  0.05728500  1
  N  N47  1  0.57853300  0.79752300  0.44271500  1
  N  N48  1  0.65012800  0.51029400  0.31405800  1
  N  N49  1  0.15012800  0.48970600  0.18594200  1
  N  N50  1  0.34987200  0.48970600  0.68594200  1
  N  N51  1  0.84987200  0.51029400  0.81405800  1
  O  O52  1  0.92063700  0.26802400  0.47974000  1
  O  O53  1  0.42063700  0.73197600  0.02026000  1
  O  O54  1  0.55187600  0.88156200  0.80346500  1
  O  O55  1  0.57936300  0.26802400  0.97974000  1
  O  O56  1  0.78023900  0.13806800  0.26284200  1
  O  O57  1  0.28023900  0.86193200  0.23715800  1
  O  O58  1  0.21976100  0.86193200  0.73715800  1
  O  O59  1  0.71976100  0.13806800  0.76284200  1
  O  O60  1  0.67903900  0.89252900  0.07438300  1
  O  O61  1  0.17903900  0.10747100  0.42561700  1
  O  O62  1  0.32096100  0.10747100  0.92561700  1
  O  O63  1  0.82096100  0.89252900  0.57438300  1
  O  O64  1  0.94812400  0.88156200  0.30346500  1
  O  O65  1  0.44812400  0.11843800  0.19653500  1
  O  O66  1  0.05187600  0.11843800  0.69653500  1
  O  O67  1  0.07936300  0.73197600  0.52026000  1
