# generated using pymatgen
data_YH3
_symmetry_space_group_name_H-M   'P 1'
_cell_length_a   6.34359129
_cell_length_b   6.34359129
_cell_length_c   6.61458500
_cell_angle_alpha   90.00000000
_cell_angle_beta   90.00000000
_cell_angle_gamma   119.99999256
_symmetry_Int_Tables_number   1
_chemical_formula_structural   YH3
_chemical_formula_sum   'Y6 H18'
_cell_volume   230.51736881
_cell_formula_units_Z   6
loop_
 _symmetry_equiv_pos_site_id
 _symmetry_equiv_pos_as_xyz
  1  'x, y, z'
loop_
 _atom_site_type_symbol
 _atom_site_label
 _atom_site_symmetry_multiplicity
 _atom_site_fract_x
 _atom_site_fract_y
 _atom_site_fract_z
 _atom_site_occupancy
  Y  Y0  1  0.66312900  0.66312900  0.75000000  1
  Y  Y1  1  0.00000000  0.33687100  0.75000000  1
  Y  Y2  1  0.33687100  0.00000000  0.75000000  1
  Y  Y3  1  0.33687100  0.33687100  0.25000000  1
  Y  Y4  1  0.00000000  0.66312900  0.25000000  1
  Y  Y5  1  0.66312900  0.00000000  0.25000000  1
  H  H6  1  0.33333300  0.66666700  0.68538500  1
  H  H7  1  0.66666700  0.33333300  0.81461500  1
  H  H8  1  0.66666700  0.33333300  0.31461500  1
  H  H9  1  0.33333300  0.66666700  0.18538500  1
  H  H10  1  0.00000000  0.00000000  0.75000000  1
  H  H11  1  0.00000000  0.00000000  0.25000000  1
  H  H12  1  0.35032500  0.02881100  0.09205800  1
  H  H13  1  0.97118900  0.32151400  0.09205800  1
  H  H14  1  0.67848600  0.64967500  0.09205800  1
  H  H15  1  0.32151400  0.97118900  0.40794200  1
  H  H16  1  0.64967500  0.67848600  0.40794200  1
  H  H17  1  0.02881100  0.35032500  0.40794200  1
  H  H18  1  0.64967500  0.97118900  0.90794200  1
  H  H19  1  0.02881100  0.67848600  0.90794200  1
  H  H20  1  0.32151400  0.35032500  0.90794200  1
  H  H21  1  0.67848600  0.02881100  0.59205800  1
  H  H22  1  0.35032500  0.32151400  0.59205800  1
  H  H23  1  0.97118900  0.64967500  0.59205800  1
