# generated using pymatgen
data_Mg(AlH4)2
_symmetry_space_group_name_H-M   'P 1'
_cell_length_a   5.23272854
_cell_length_b   5.23272854
_cell_length_c   6.04250400
_cell_angle_alpha   90.00000000
_cell_angle_beta   90.00000000
_cell_angle_gamma   120.00000680
_symmetry_Int_Tables_number   1
_chemical_formula_structural   Mg(AlH4)2
_chemical_formula_sum   'Mg1 Al2 H8'
_cell_volume   143.28606589
_cell_formula_units_Z   1
loop_
 _symmetry_equiv_pos_site_id
 _symmetry_equiv_pos_as_xyz
  1  'x, y, z'
loop_
 _atom_site_type_symbol
 _atom_site_label
 _atom_site_symmetry_multiplicity
 _atom_site_fract_x
 _atom_site_fract_y
 _atom_site_fract_z
 _atom_site_occupancy
  Mg  Mg0  1  0.00000000  0.00000000  0.00000000  1
  Al  Al1  1  0.33333300  0.66666700  0.70575900  1
  Al  Al2  1  0.66666700  0.33333300  0.29424100  1
  H  H3  1  0.83244300  0.16755700  0.18992300  1
  H  H4  1  0.83244300  0.66488500  0.18992300  1
  H  H5  1  0.33511500  0.16755700  0.18992300  1
  H  H6  1  0.33333300  0.66666700  0.44043200  1
  H  H7  1  0.66666700  0.33333300  0.55956800  1
  H  H8  1  0.16755700  0.83244300  0.81007700  1
  H  H9  1  0.16755700  0.33511500  0.81007700  1
  H  H10  1  0.66488500  0.83244300  0.81007700  1
