# generated using pymatgen
data_NaB(H4O)2
_symmetry_space_group_name_H-M   'P 1'
_cell_length_a   6.89343900
_cell_length_b   10.32036600
_cell_length_c   12.06755500
_cell_angle_alpha   90.00000000
_cell_angle_beta   90.00000000
_cell_angle_gamma   90.00000000
_symmetry_Int_Tables_number   1
_chemical_formula_structural   NaB(H4O)2
_chemical_formula_sum   'Na8 B8 H64 O16'
_cell_volume   858.51981451
_cell_formula_units_Z   8
loop_
 _symmetry_equiv_pos_site_id
 _symmetry_equiv_pos_as_xyz
  1  'x, y, z'
loop_
 _atom_site_type_symbol
 _atom_site_label
 _atom_site_symmetry_multiplicity
 _atom_site_fract_x
 _atom_site_fract_y
 _atom_site_fract_z
 _atom_site_occupancy
  Na  Na0  1  0.95258900  0.82933100  0.98785300  1
  Na  Na1  1  0.45258900  0.17066900  0.51214700  1
  Na  Na2  1  0.54741100  0.32933100  0.01214700  1
  Na  Na3  1  0.04741100  0.67066900  0.48785300  1
  Na  Na4  1  0.04741100  0.17066900  0.01214700  1
  Na  Na5  1  0.54741100  0.82933100  0.48785300  1
  Na  Na6  1  0.45258900  0.67066900  0.98785300  1
  Na  Na7  1  0.95258900  0.32933100  0.51214700  1
  B  B8  1  0.09771500  0.61230000  0.85007700  1
  B  B9  1  0.59771500  0.38770000  0.64992300  1
  B  B10  1  0.40228500  0.11230000  0.14992300  1
  B  B11  1  0.90228500  0.88770000  0.35007700  1
  B  B12  1  0.90228500  0.38770000  0.14992300  1
  B  B13  1  0.40228500  0.61230000  0.35007700  1
  B  B14  1  0.59771500  0.88770000  0.85007700  1
  B  B15  1  0.09771500  0.11230000  0.64992300  1
  H  H16  1  0.26894100  0.61000000  0.82270700  1
  H  H17  1  0.76894100  0.39000000  0.67729300  1
  H  H18  1  0.23105900  0.11000000  0.17729300  1
  H  H19  1  0.73105900  0.89000000  0.32270700  1
  H  H20  1  0.73105900  0.39000000  0.17729300  1
  H  H21  1  0.23105900  0.61000000  0.32270700  1
  H  H22  1  0.76894100  0.89000000  0.82270700  1
  H  H23  1  0.26894100  0.11000000  0.67729300  1
  H  H24  1  0.01883700  0.51150000  0.81668400  1
  H  H25  1  0.51883700  0.48850000  0.68331600  1
  H  H26  1  0.48116300  0.01150000  0.18331600  1
  H  H27  1  0.98116300  0.98850000  0.31668400  1
  H  H28  1  0.98116300  0.48850000  0.18331600  1
  H  H29  1  0.48116300  0.51150000  0.31668400  1
  H  H30  1  0.51883700  0.98850000  0.81668400  1
  H  H31  1  0.01883700  0.01150000  0.68331600  1
  H  H32  1  0.89403100  0.49021300  0.31854800  1
  H  H33  1  0.39403100  0.50978700  0.18145200  1
  H  H34  1  0.60596900  0.99021300  0.68145200  1
  H  H35  1  0.10596900  0.00978700  0.81854800  1
  H  H36  1  0.10596900  0.50978700  0.68145200  1
  H  H37  1  0.60596900  0.49021300  0.81854800  1
  H  H38  1  0.39403100  0.00978700  0.31854800  1
  H  H39  1  0.89403100  0.99021300  0.18145200  1
  H  H40  1  0.01651100  0.20510200  0.69260300  1
  H  H41  1  0.21260100  0.47530400  0.11186400  1
  H  H42  1  0.78739900  0.02469600  0.61186400  1
  H  H43  1  0.28739900  0.97530400  0.88813600  1
  H  H44  1  0.28739900  0.47530400  0.61186400  1
  H  H45  1  0.78739900  0.52469600  0.88813600  1
  H  H46  1  0.21260100  0.97530400  0.38813600  1
  H  H47  1  0.71260100  0.02469600  0.11186400  1
  H  H48  1  0.01651100  0.70510200  0.80739700  1
  H  H49  1  0.51651100  0.29489800  0.69260300  1
  H  H50  1  0.48348900  0.20510200  0.19260300  1
  H  H51  1  0.98348900  0.79489800  0.30739700  1
  H  H52  1  0.98348900  0.29489800  0.19260300  1
  H  H53  1  0.48348900  0.70510200  0.30739700  1
  H  H54  1  0.51651100  0.79489800  0.80739700  1
  H  H55  1  0.08251400  0.11437900  0.54877400  1
  H  H56  1  0.23318100  0.26715300  0.32241800  1
  H  H57  1  0.73318100  0.73284700  0.17758200  1
  H  H58  1  0.26681900  0.76715300  0.67758200  1
  H  H59  1  0.76681900  0.23284700  0.82241800  1
  H  H60  1  0.76681900  0.73284700  0.67758200  1
  H  H61  1  0.26681900  0.26715300  0.82241800  1
  H  H62  1  0.73318100  0.23284700  0.32241800  1
  H  H63  1  0.23318100  0.76715300  0.17758200  1
  H  H64  1  0.30647700  0.39427700  0.37633900  1
  H  H65  1  0.80647700  0.60572300  0.12366100  1
  H  H66  1  0.19352300  0.89427700  0.62366100  1
  H  H67  1  0.69352300  0.10572300  0.87633900  1
  H  H68  1  0.69352300  0.60572300  0.62366100  1
  H  H69  1  0.19352300  0.39427700  0.87633900  1
  H  H70  1  0.80647700  0.10572300  0.37633900  1
  H  H71  1  0.30647700  0.89427700  0.12366100  1
  H  H72  1  0.08251400  0.61437900  0.95122600  1
  H  H73  1  0.58251400  0.38562100  0.54877400  1
  H  H74  1  0.41748600  0.11437900  0.04877400  1
  H  H75  1  0.91748600  0.88562100  0.45122600  1
  H  H76  1  0.91748600  0.38562100  0.04877400  1
  H  H77  1  0.41748600  0.61437900  0.45122600  1
  H  H78  1  0.58251400  0.88562100  0.95122600  1
  H  H79  1  0.71260100  0.52469600  0.38813600  1
  O  O80  1  0.24935600  0.80945800  0.10558100  1
  O  O81  1  0.74935600  0.19054200  0.39441900  1
  O  O82  1  0.25064400  0.30945800  0.89441900  1
  O  O83  1  0.75064400  0.69054200  0.60558100  1
  O  O84  1  0.75064400  0.19054200  0.89441900  1
  O  O85  1  0.25064400  0.80945800  0.60558100  1
  O  O86  1  0.74935600  0.69054200  0.10558100  1
  O  O87  1  0.24935600  0.30945800  0.39441900  1
  O  O88  1  0.85280500  0.00920700  0.10495700  1
  O  O89  1  0.35280500  0.99079300  0.39504300  1
  O  O90  1  0.64719500  0.50920700  0.89504300  1
  O  O91  1  0.14719500  0.49079300  0.60495700  1
  O  O92  1  0.14719500  0.99079300  0.89504300  1
  O  O93  1  0.64719500  0.00920700  0.60495700  1
  O  O94  1  0.35280500  0.49079300  0.10495700  1
  O  O95  1  0.85280500  0.50920700  0.39504300  1
