# generated using pymatgen
data_Al2P2H9NO11
_symmetry_space_group_name_H-M   'P 1'
_cell_length_a   9.66420800
_cell_length_b   9.64770700
_cell_length_c   11.97162831
_cell_angle_alpha   52.20066284
_cell_angle_beta   90.00000000
_cell_angle_gamma   90.00000000
_symmetry_Int_Tables_number   1
_chemical_formula_structural   Al2P2H9NO11
_chemical_formula_sum   'Al8 P8 H36 N4 O44'
_cell_volume   881.98214893
_cell_formula_units_Z   4
loop_
 _symmetry_equiv_pos_site_id
 _symmetry_equiv_pos_as_xyz
  1  'x, y, z'
loop_
 _atom_site_type_symbol
 _atom_site_label
 _atom_site_symmetry_multiplicity
 _atom_site_fract_x
 _atom_site_fract_y
 _atom_site_fract_z
 _atom_site_occupancy
  Al  Al0  1  0.76933300  0.29299800  0.81482000  1
  Al  Al1  1  0.26933300  0.70700200  0.68518000  1
  Al  Al2  1  0.23066700  0.70700200  0.18518000  1
  Al  Al3  1  0.73066700  0.29299800  0.31482000  1
  Al  Al4  1  0.53596000  0.98724400  0.12775900  1
  Al  Al5  1  0.03596000  0.01275600  0.37224100  1
  Al  Al6  1  0.46404000  0.01275600  0.87224100  1
  Al  Al7  1  0.96404000  0.98724400  0.62775900  1
  P  P8  1  0.69192100  0.15944700  0.63544300  1
  P  P9  1  0.19192100  0.84055300  0.86455700  1
  P  P10  1  0.30807900  0.84055300  0.36455700  1
  P  P11  1  0.80807900  0.15944700  0.13544300  1
  P  P12  1  0.46449500  0.34916600  0.84889300  1
  P  P13  1  0.96449500  0.65083400  0.65110700  1
  P  P14  1  0.53550500  0.65083400  0.15110700  1
  P  P15  1  0.03550500  0.34916600  0.34889300  1
  H  H16  1  0.63891700  0.56082000  0.85765500  1
  H  H17  1  0.13891700  0.43918000  0.64234500  1
  H  H18  1  0.36108300  0.43918000  0.14234500  1
  H  H19  1  0.86108300  0.56082000  0.35765500  1
  H  H20  1  0.77792700  0.67837200  0.83170500  1
  H  H21  1  0.27792700  0.32162800  0.66829500  1
  H  H22  1  0.22207300  0.32162800  0.16829500  1
  H  H23  1  0.72207300  0.67837200  0.33170500  1
  H  H24  1  0.72964700  0.50186200  0.99878900  1
  H  H25  1  0.22964700  0.49813800  0.50121100  1
  H  H26  1  0.27035300  0.49813800  0.00121100  1
  H  H27  1  0.77035300  0.50186200  0.49878900  1
  H  H28  1  0.63479900  0.68854700  0.91320200  1
  H  H29  1  0.13479900  0.31145300  0.58679800  1
  H  H30  1  0.36520100  0.31145300  0.08679800  1
  H  H31  1  0.86520100  0.68854700  0.41320200  1
  H  H32  1  0.95983700  0.09238700  0.81088900  1
  H  H33  1  0.45983700  0.90761300  0.68911100  1
  H  H34  1  0.04016300  0.90761300  0.18911100  1
  H  H35  1  0.54016300  0.09238700  0.31088900  1
  H  H36  1  0.86589400  0.65066100  0.11390100  1
  H  H37  1  0.36589400  0.34933900  0.38609900  1
  H  H38  1  0.13410600  0.34933900  0.88609900  1
  H  H39  1  0.63410600  0.65066100  0.61390100  1
  H  H40  1  0.91439500  0.80754400  0.95866000  1
  H  H41  1  0.79982200  0.96084900  0.48020400  1
  H  H42  1  0.08560500  0.19245600  0.04134000  1
  H  H43  1  0.58560500  0.80754400  0.45866000  1
  H  H44  1  0.01280000  0.16518600  0.89664400  1
  H  H45  1  0.51280000  0.83481400  0.60335600  1
  H  H46  1  0.98720000  0.83481400  0.10335600  1
  H  H47  1  0.48720000  0.16518600  0.39664400  1
  H  H48  1  0.70017800  0.96084900  0.98020400  1
  H  H49  1  0.20017800  0.03915100  0.51979600  1
  H  H50  1  0.29982200  0.03915100  0.01979600  1
  H  H51  1  0.41439500  0.19245600  0.54134000  1
  N  N52  1  0.19475900  0.38989000  0.60002100  1
  N  N53  1  0.30524100  0.38989000  0.10002100  1
  N  N54  1  0.80524100  0.61011000  0.39997900  1
  N  N55  1  0.69475900  0.61011000  0.89997900  1
  O  O56  1  0.55062100  0.06984100  0.70767800  1
  O  O57  1  0.58666400  0.75532600  0.20320300  1
  O  O58  1  0.91333600  0.75532600  0.70320300  1
  O  O59  1  0.41333600  0.24467400  0.79679700  1
  O  O60  1  0.77201700  0.29087300  0.16467100  1
  O  O61  1  0.27201700  0.70912700  0.33532900  1
  O  O62  1  0.22798300  0.70912700  0.83532900  1
  O  O63  1  0.72798300  0.29087300  0.66467100  1
  O  O64  1  0.82301500  0.26529900  0.97520900  1
  O  O65  1  0.32301500  0.73470100  0.52479100  1
  O  O66  1  0.17698500  0.73470100  0.02479100  1
  O  O67  1  0.67698500  0.26529900  0.47520900  1
  O  O68  1  0.47558500  0.22370000  0.01378700  1
  O  O69  1  0.19718200  0.98447300  0.30460000  1
  O  O70  1  0.30281800  0.98447300  0.80460000  1
  O  O71  1  0.80281800  0.01552700  0.69540000  1
  O  O72  1  0.94937900  0.06984100  0.20767800  1
  O  O73  1  0.44937900  0.93015900  0.29232200  1
  O  O74  1  0.05062100  0.93015900  0.79232200  1
  O  O75  1  0.08666400  0.24467400  0.29679700  1
  O  O76  1  0.86517200  0.05793100  0.44563700  1
  O  O77  1  0.36517200  0.94206900  0.05436300  1
  O  O78  1  0.13482800  0.94206900  0.55436300  1
  O  O79  1  0.63482800  0.05793100  0.94563700  1
  O  O80  1  0.36732700  0.49835100  0.80554900  1
  O  O81  1  0.86732700  0.50164900  0.69445100  1
  O  O82  1  0.63267300  0.50164900  0.19445100  1
  O  O83  1  0.13267300  0.49835100  0.30554900  1
  O  O84  1  0.56915600  0.15003500  0.35224400  1
  O  O85  1  0.06915600  0.84996500  0.14775600  1
  O  O86  1  0.43084400  0.84996500  0.64775600  1
  O  O87  1  0.93084400  0.15003500  0.85224400  1
  O  O88  1  0.61093100  0.42638000  0.78584100  1
  O  O89  1  0.11093100  0.57362000  0.71415900  1
  O  O90  1  0.38906900  0.57362000  0.21415900  1
  O  O91  1  0.88906900  0.42638000  0.28584100  1
  O  O92  1  0.63435900  0.78003700  0.54221000  1
  O  O93  1  0.13435900  0.21996300  0.95779000  1
  O  O94  1  0.36564100  0.21996300  0.45779000  1
  O  O95  1  0.86564100  0.78003700  0.04221000  1
  O  O96  1  0.97558500  0.77630000  0.48621300  1
  O  O97  1  0.52441500  0.77630000  0.98621300  1
  O  O98  1  0.02441500  0.22370000  0.51378700  1
  O  O99  1  0.69718200  0.01552700  0.19540000  1
