# generated using pymatgen
data_H8PtN2(ClO)2
_symmetry_space_group_name_H-M   'P 1'
_cell_length_a   6.97108500
_cell_length_b   6.23891500
_cell_length_c   8.17828467
_cell_angle_alpha   74.05084140
_cell_angle_beta   90.00000000
_cell_angle_gamma   90.00000000
_symmetry_Int_Tables_number   1
_chemical_formula_structural   H8PtN2(ClO)2
_chemical_formula_sum   'H16 Pt2 N4 Cl4 O4'
_cell_volume   341.99804701
_cell_formula_units_Z   2
loop_
 _symmetry_equiv_pos_site_id
 _symmetry_equiv_pos_as_xyz
  1  'x, y, z'
loop_
 _atom_site_type_symbol
 _atom_site_label
 _atom_site_symmetry_multiplicity
 _atom_site_fract_x
 _atom_site_fract_y
 _atom_site_fract_z
 _atom_site_occupancy
  H  H0  1  0.73622800  0.33691800  0.43767700  1
  H  H1  1  0.23622800  0.66308200  0.06232300  1
  H  H2  1  0.26377200  0.66308200  0.56232300  1
  H  H3  1  0.76377200  0.33691800  0.93767700  1
  H  H4  1  0.83954900  0.13196800  0.37007000  1
  H  H5  1  0.33954900  0.86803200  0.12993000  1
  H  H6  1  0.16045100  0.86803200  0.62993000  1
  H  H7  1  0.66045100  0.13196800  0.87007000  1
  H  H8  1  0.83880800  0.11796600  0.57973200  1
  H  H9  1  0.33880800  0.88203400  0.92026800  1
  H  H10  1  0.16119200  0.88203400  0.42026800  1
  H  H11  1  0.66119200  0.11796600  0.07973200  1
  H  H12  1  0.61107100  0.81878500  0.28087300  1
  H  H13  1  0.11107100  0.18121500  0.21912700  1
  H  H14  1  0.88892900  0.81878500  0.78087300  1
  H  H15  1  0.38892900  0.18121500  0.71912700  1
  Pt  Pt16  1  0.50000000  0.00000000  0.50000000  1
  Pt  Pt17  1  0.00000000  0.00000000  0.00000000  1
  N  N18  1  0.75957100  0.16830900  0.46717700  1
  N  N19  1  0.25957100  0.83169100  0.03282300  1
  N  N20  1  0.24042900  0.83169100  0.53282300  1
  N  N21  1  0.74042900  0.16830900  0.96717700  1
  Cl  Cl22  1  0.66100500  0.66411600  0.61855800  1
  Cl  Cl23  1  0.16100500  0.33588400  0.88144200  1
  Cl  Cl24  1  0.33899500  0.33588400  0.38144200  1
  Cl  Cl25  1  0.83899500  0.66411600  0.11855800  1
  O  O26  1  0.52503900  0.94764400  0.26479100  1
  O  O27  1  0.02503900  0.05235600  0.23520900  1
  O  O28  1  0.47496100  0.05235600  0.73520900  1
  O  O29  1  0.97496100  0.94764400  0.76479100  1
