# generated using pymatgen
data_NaHO
_symmetry_space_group_name_H-M   'P 1'
_cell_length_a   6.02824891
_cell_length_b   6.02824891
_cell_length_c   3.41955700
_cell_angle_alpha   90.00000000
_cell_angle_beta   90.00000000
_cell_angle_gamma   146.92471900
_symmetry_Int_Tables_number   1
_chemical_formula_structural   NaHO
_chemical_formula_sum   'Na2 H2 O2'
_cell_volume   67.81696975
_cell_formula_units_Z   2
loop_
 _symmetry_equiv_pos_site_id
 _symmetry_equiv_pos_as_xyz
  1  'x, y, z'
loop_
 _atom_site_type_symbol
 _atom_site_label
 _atom_site_symmetry_multiplicity
 _atom_site_fract_x
 _atom_site_fract_y
 _atom_site_fract_z
 _atom_site_occupancy
  Na  Na0  1  0.33712500  0.66287500  0.25000000  1
  Na  Na1  1  0.66287500  0.33712500  0.75000000  1
  H  H2  1  0.05121100  0.94878900  0.25000000  1
  H  H3  1  0.94878900  0.05121100  0.75000000  1
  O  O4  1  0.86463200  0.13536800  0.75000000  1
  O  O5  1  0.13536800  0.86463200  0.25000000  1
