# generated using pymatgen
data_Ca2Al3Si3HO13
_symmetry_space_group_name_H-M   'P 1'
_cell_length_a   5.60632600
_cell_length_b   10.11876500
_cell_length_c   16.37346200
_cell_angle_alpha   90.00000000
_cell_angle_beta   90.00000000
_cell_angle_gamma   90.00000000
_symmetry_Int_Tables_number   1
_chemical_formula_structural   Ca2Al3Si3HO13
_chemical_formula_sum   'Ca8 Al12 Si12 H4 O52'
_cell_volume   928.85168631
_cell_formula_units_Z   4
loop_
 _symmetry_equiv_pos_site_id
 _symmetry_equiv_pos_as_xyz
  1  'x, y, z'
loop_
 _atom_site_type_symbol
 _atom_site_label
 _atom_site_symmetry_multiplicity
 _atom_site_fract_x
 _atom_site_fract_y
 _atom_site_fract_z
 _atom_site_occupancy
  Ca  Ca0  1  0.25000000  0.38390500  0.95086100  1
  Ca  Ca1  1  0.75000000  0.61609500  0.04913900  1
  Ca  Ca2  1  0.75000000  0.88390500  0.54913900  1
  Ca  Ca3  1  0.25000000  0.11609500  0.45086100  1
  Ca  Ca4  1  0.25000000  0.06431200  0.86697200  1
  Ca  Ca5  1  0.75000000  0.93568800  0.13302800  1
  Ca  Ca6  1  0.75000000  0.56431200  0.63302800  1
  Ca  Ca7  1  0.25000000  0.43568800  0.36697200  1
  Al  Al8  1  0.75000000  0.19950700  0.60621100  1
  Al  Al9  1  0.25000000  0.80049300  0.39378900  1
  Al  Al10  1  0.25000000  0.69950700  0.89378900  1
  Al  Al11  1  0.75000000  0.30049300  0.10621100  1
  Al  Al12  1  0.49669800  0.68918500  0.25070500  1
  Al  Al13  1  0.99669800  0.31081500  0.74929500  1
  Al  Al14  1  0.50330200  0.18918500  0.24929500  1
  Al  Al15  1  0.00330200  0.81081500  0.75070500  1
  Al  Al16  1  0.50330200  0.31081500  0.74929500  1
  Al  Al17  1  0.00330200  0.68918500  0.25070500  1
  Al  Al18  1  0.49669800  0.81081500  0.75070500  1
  Al  Al19  1  0.99669800  0.18918500  0.24929500  1
  Si  Si20  1  0.25000000  0.06507000  0.66029200  1
  Si  Si21  1  0.75000000  0.93493000  0.33970800  1
  Si  Si22  1  0.75000000  0.56507000  0.83970800  1
  Si  Si23  1  0.25000000  0.43493000  0.16029200  1
  Si  Si24  1  0.75000000  0.21797900  0.91076800  1
  Si  Si25  1  0.25000000  0.78202100  0.08923200  1
  Si  Si26  1  0.25000000  0.71797900  0.58923200  1
  Si  Si27  1  0.75000000  0.28202100  0.41076800  1
  Si  Si28  1  0.25000000  0.39311600  0.58157800  1
  Si  Si29  1  0.75000000  0.60688400  0.41842200  1
  Si  Si30  1  0.75000000  0.89311600  0.91842200  1
  Si  Si31  1  0.25000000  0.10688400  0.08157800  1
  H  H32  1  0.25000000  0.52420100  0.76869400  1
  H  H33  1  0.75000000  0.47579900  0.23130600  1
  H  H34  1  0.75000000  0.02420100  0.73130600  1
  H  H35  1  0.25000000  0.97579900  0.26869400  1
  O  O36  1  0.25000000  0.42601000  0.76630700  1
  O  O37  1  0.75000000  0.57399000  0.23369300  1
  O  O38  1  0.75000000  0.92601000  0.73369300  1
  O  O39  1  0.25000000  0.07399000  0.26630700  1
  O  O40  1  0.75000000  0.05613200  0.91956400  1
  O  O41  1  0.25000000  0.94386800  0.08043600  1
  O  O42  1  0.25000000  0.55613200  0.58043600  1
  O  O43  1  0.75000000  0.44386800  0.41956400  1
  O  O44  1  0.75000000  0.20604600  0.49690700  1
  O  O45  1  0.25000000  0.79395400  0.50309300  1
  O  O46  1  0.25000000  0.70604600  0.00309300  1
  O  O47  1  0.75000000  0.29395400  0.99690700  1
  O  O48  1  0.25000000  0.33644300  0.49090000  1
  O  O49  1  0.75000000  0.66355700  0.50910000  1
  O  O50  1  0.75000000  0.83644300  0.00910000  1
  O  O51  1  0.25000000  0.16355700  0.99090000  1
  O  O52  1  0.75000000  0.44060100  0.77135600  1
  O  O53  1  0.25000000  0.55939900  0.22864400  1
  O  O54  1  0.25000000  0.94060100  0.72864400  1
  O  O55  1  0.75000000  0.05939900  0.27135600  1
  O  O56  1  0.25000000  0.18850300  0.72824500  1
  O  O57  1  0.75000000  0.81149700  0.27175500  1
  O  O58  1  0.75000000  0.68850300  0.77175500  1
  O  O59  1  0.25000000  0.31149700  0.22824500  1
  O  O60  1  0.75000000  0.19899100  0.71892800  1
  O  O61  1  0.25000000  0.80100900  0.28107200  1
  O  O62  1  0.25000000  0.69899100  0.78107200  1
  O  O63  1  0.75000000  0.30100900  0.21892800  1
  O  O64  1  0.49096500  0.74335600  0.14100100  1
  O  O65  1  0.99096500  0.25664400  0.85899900  1
  O  O66  1  0.50903500  0.24335600  0.35899900  1
  O  O67  1  0.00903500  0.75664400  0.64100100  1
  O  O68  1  0.50903500  0.25664400  0.85899900  1
  O  O69  1  0.00903500  0.74335600  0.14100100  1
  O  O70  1  0.49096500  0.75664400  0.64100100  1
  O  O71  1  0.99096500  0.24335600  0.35899900  1
  O  O72  1  0.51225500  0.93004100  0.39838600  1
  O  O73  1  0.01225500  0.06995900  0.60161400  1
  O  O74  1  0.48774500  0.43004100  0.10161400  1
  O  O75  1  0.98774500  0.56995900  0.89838600  1
  O  O76  1  0.48774500  0.06995900  0.60161400  1
  O  O77  1  0.98774500  0.93004100  0.39838600  1
  O  O78  1  0.51225500  0.56995900  0.89838600  1
  O  O79  1  0.01225500  0.43004100  0.10161400  1
  O  O80  1  0.49743700  0.64690900  0.36994500  1
  O  O81  1  0.99743700  0.35309100  0.63005500  1
  O  O82  1  0.50256300  0.14690900  0.13005500  1
  O  O83  1  0.00256300  0.85309100  0.86994500  1
  O  O84  1  0.50256300  0.35309100  0.63005500  1
  O  O85  1  0.00256300  0.64690900  0.36994500  1
  O  O86  1  0.49743700  0.85309100  0.86994500  1
  O  O87  1  0.99743700  0.14690900  0.13005500  1
