# generated using pymatgen
data_HN
_symmetry_space_group_name_H-M   'P 1'
_cell_length_a   3.82821200
_cell_length_b   8.65792800
_cell_length_c   9.00334700
_cell_angle_alpha   90.00000000
_cell_angle_beta   90.00000000
_cell_angle_gamma   90.00000000
_symmetry_Int_Tables_number   1
_chemical_formula_structural   HN
_chemical_formula_sum   'H16 N16'
_cell_volume   298.41038904
_cell_formula_units_Z   16
loop_
 _symmetry_equiv_pos_site_id
 _symmetry_equiv_pos_as_xyz
  1  'x, y, z'
loop_
 _atom_site_type_symbol
 _atom_site_label
 _atom_site_symmetry_multiplicity
 _atom_site_fract_x
 _atom_site_fract_y
 _atom_site_fract_z
 _atom_site_occupancy
  H  H0  1  0.39175400  0.20620200  0.66492400  1
  H  H1  1  0.39175400  0.29379800  0.83507600  1
  H  H2  1  0.60824600  0.70620200  0.83507600  1
  H  H3  1  0.60824600  0.79379800  0.66492400  1
  H  H4  1  0.60824600  0.79379800  0.33507600  1
  H  H5  1  0.60824600  0.70620200  0.16492400  1
  H  H6  1  0.39175400  0.29379800  0.16492400  1
  H  H7  1  0.39175400  0.20620200  0.33507600  1
  H  H8  1  0.70658300  0.33838700  0.70847800  1
  H  H9  1  0.70658300  0.16161300  0.79152200  1
  H  H10  1  0.29341700  0.83838700  0.79152200  1
  H  H11  1  0.29341700  0.66161300  0.70847800  1
  H  H12  1  0.29341700  0.66161300  0.29152200  1
  H  H13  1  0.29341700  0.83838700  0.20847800  1
  H  H14  1  0.70658300  0.16161300  0.20847800  1
  H  H15  1  0.70658300  0.33838700  0.29152200  1
  N  N16  1  0.54857900  0.25000000  0.75000000  1
  N  N17  1  0.45142100  0.75000000  0.75000000  1
  N  N18  1  0.45142100  0.75000000  0.25000000  1
  N  N19  1  0.54857900  0.25000000  0.25000000  1
  N  N20  1  0.87519400  0.87456000  0.50000000  1
  N  N21  1  0.87519400  0.62544000  0.00000000  1
  N  N22  1  0.12480600  0.37456000  0.00000000  1
  N  N23  1  0.12480600  0.12544000  0.50000000  1
  N  N24  1  0.00000000  0.50000000  0.00000000  1
  N  N25  1  0.00000000  0.00000000  0.50000000  1
  N  N26  1  0.00000000  0.50000000  0.63182300  1
  N  N27  1  0.00000000  0.00000000  0.86817700  1
  N  N28  1  0.00000000  0.50000000  0.36817700  1
  N  N29  1  0.00000000  0.00000000  0.13182300  1
  N  N30  1  0.00000000  0.50000000  0.50000000  1
  N  N31  1  0.00000000  0.00000000  0.00000000  1
