# generated using pymatgen
data_NaHO
_symmetry_space_group_name_H-M   'P 1'
_cell_length_a   3.43911700
_cell_length_b   3.42220600
_cell_length_c   5.93310384
_cell_angle_alpha   76.69197185
_cell_angle_beta   90.00000000
_cell_angle_gamma   90.00000000
_symmetry_Int_Tables_number   1
_chemical_formula_structural   NaHO
_chemical_formula_sum   'Na2 H2 O2'
_cell_volume   67.95373483
_cell_formula_units_Z   2
loop_
 _symmetry_equiv_pos_site_id
 _symmetry_equiv_pos_as_xyz
  1  'x, y, z'
loop_
 _atom_site_type_symbol
 _atom_site_label
 _atom_site_symmetry_multiplicity
 _atom_site_fract_x
 _atom_site_fract_y
 _atom_site_fract_z
 _atom_site_occupancy
  Na  Na0  1  0.75000000  0.31861700  0.82481100  1
  Na  Na1  1  0.25000000  0.68138300  0.17518900  1
  H  H2  1  0.75000000  0.06717900  0.39766500  1
  H  H3  1  0.25000000  0.93282100  0.60233500  1
  O  O4  1  0.25000000  0.83244500  0.76965100  1
  O  O5  1  0.75000000  0.16755500  0.23034900  1
