# generated using pymatgen
data_BaH6Cl2O11
_symmetry_space_group_name_H-M   'P 1'
_cell_length_a   7.43277391
_cell_length_b   7.43277391
_cell_length_c   9.81676800
_cell_angle_alpha   90.00000000
_cell_angle_beta   90.00000000
_cell_angle_gamma   119.99999919
_symmetry_Int_Tables_number   1
_chemical_formula_structural   BaH6Cl2O11
_chemical_formula_sum   'Ba2 H12 Cl4 O22'
_cell_volume   469.67885416
_cell_formula_units_Z   2
loop_
 _symmetry_equiv_pos_site_id
 _symmetry_equiv_pos_as_xyz
  1  'x, y, z'
loop_
 _atom_site_type_symbol
 _atom_site_label
 _atom_site_symmetry_multiplicity
 _atom_site_fract_x
 _atom_site_fract_y
 _atom_site_fract_z
 _atom_site_occupancy
  Ba  Ba0  1  0.00000000  0.00000000  0.50000000  1
  Ba  Ba1  1  0.00000000  0.00000000  0.00000000  1
  H  H2  1  0.72639900  0.69377500  0.75000000  1
  H  H3  1  0.03262400  0.72639900  0.25000000  1
  H  H4  1  0.69377500  0.96737600  0.25000000  1
  H  H5  1  0.30622500  0.03262400  0.75000000  1
  H  H6  1  0.96737600  0.27360100  0.75000000  1
  H  H7  1  0.27360100  0.30622500  0.25000000  1
  H  H8  1  0.81371300  0.20779900  0.25000000  1
  H  H9  1  0.18628700  0.79220100  0.75000000  1
  H  H10  1  0.20779900  0.39408600  0.75000000  1
  H  H11  1  0.39408600  0.18628700  0.25000000  1
  H  H12  1  0.60591400  0.81371300  0.75000000  1
  H  H13  1  0.79220100  0.60591400  0.25000000  1
  Cl  Cl14  1  0.33333300  0.66666700  0.46619800  1
  Cl  Cl15  1  0.66666700  0.33333300  0.96619800  1
  Cl  Cl16  1  0.66666700  0.33333300  0.53380200  1
  Cl  Cl17  1  0.33333300  0.66666700  0.03380200  1
  O  O18  1  0.73182100  0.18934400  0.58390900  1
  O  O19  1  0.54247700  0.73182100  0.08390900  1
  O  O20  1  0.26817900  0.81065600  0.08390900  1
  O  O21  1  0.81065600  0.54247700  0.58390900  1
  O  O22  1  0.45752300  0.26817900  0.58390900  1
  O  O23  1  0.26817900  0.81065600  0.41609100  1
  O  O24  1  0.54247700  0.73182100  0.41609100  1
  O  O25  1  0.45752300  0.26817900  0.91609100  1
  O  O26  1  0.73182100  0.18934400  0.91609100  1
  O  O27  1  0.18934400  0.45752300  0.41609100  1
  O  O28  1  0.25319600  0.16542200  0.25000000  1
  O  O29  1  0.08777400  0.25319600  0.75000000  1
  O  O30  1  0.16542200  0.91222600  0.75000000  1
  O  O31  1  0.83457800  0.08777400  0.25000000  1
  O  O32  1  0.91222600  0.74680400  0.25000000  1
  O  O33  1  0.74680400  0.83457800  0.75000000  1
  O  O34  1  0.33333300  0.66666700  0.61472400  1
  O  O35  1  0.66666700  0.33333300  0.11472400  1
  O  O36  1  0.66666700  0.33333300  0.38527600  1
  O  O37  1  0.33333300  0.66666700  0.88527600  1
  O  O38  1  0.81065600  0.54247700  0.91609100  1
  O  O39  1  0.18934400  0.45752300  0.08390900  1
