# generated using pymatgen
data_Rb3MgH5
_symmetry_space_group_name_H-M   'P 1'
_cell_length_a   8.07156300
_cell_length_b   8.07156300
_cell_length_c   12.32894300
_cell_angle_alpha   90.00000000
_cell_angle_beta   90.00000000
_cell_angle_gamma   90.00000000
_symmetry_Int_Tables_number   1
_chemical_formula_structural   Rb3MgH5
_chemical_formula_sum   'Rb12 Mg4 H20'
_cell_volume   803.23223013
_cell_formula_units_Z   4
loop_
 _symmetry_equiv_pos_site_id
 _symmetry_equiv_pos_as_xyz
  1  'x, y, z'
loop_
 _atom_site_type_symbol
 _atom_site_label
 _atom_site_symmetry_multiplicity
 _atom_site_fract_x
 _atom_site_fract_y
 _atom_site_fract_z
 _atom_site_occupancy
  Rb  Rb0  1  0.00000000  0.50000000  0.48822600  1
  Rb  Rb1  1  0.50000000  0.00000000  0.01177400  1
  Rb  Rb2  1  0.50000000  0.00000000  0.51177400  1
  Rb  Rb3  1  0.00000000  0.50000000  0.98822600  1
  Rb  Rb4  1  0.68709900  0.68709900  0.75000000  1
  Rb  Rb5  1  0.81290100  0.18709900  0.75000000  1
  Rb  Rb6  1  0.18709900  0.81290100  0.75000000  1
  Rb  Rb7  1  0.31290100  0.31290100  0.75000000  1
  Rb  Rb8  1  0.81290100  0.81290100  0.25000000  1
  Rb  Rb9  1  0.68709900  0.31290100  0.25000000  1
  Rb  Rb10  1  0.31290100  0.68709900  0.25000000  1
  Rb  Rb11  1  0.18709900  0.18709900  0.25000000  1
  Mg  Mg12  1  0.00000000  0.00000000  0.50000000  1
  Mg  Mg13  1  0.50000000  0.50000000  0.50000000  1
  Mg  Mg14  1  0.50000000  0.50000000  0.00000000  1
  Mg  Mg15  1  0.00000000  0.00000000  0.00000000  1
  H  H16  1  0.00000000  0.50000000  0.72906800  1
  H  H17  1  0.50000000  0.00000000  0.77093200  1
  H  H18  1  0.50000000  0.00000000  0.27093200  1
  H  H19  1  0.00000000  0.50000000  0.22906800  1
  H  H20  1  0.40076700  0.65311400  0.59187900  1
  H  H21  1  0.59923300  0.34688600  0.59187900  1
  H  H22  1  0.65311400  0.40076700  0.90812100  1
  H  H23  1  0.15311400  0.09923300  0.59187900  1
  H  H24  1  0.84688600  0.90076700  0.59187900  1
  H  H25  1  0.09923300  0.15311400  0.90812100  1
  H  H26  1  0.90076700  0.84688600  0.90812100  1
  H  H27  1  0.34688600  0.59923300  0.90812100  1
  H  H28  1  0.09923300  0.84688600  0.40812100  1
  H  H29  1  0.90076700  0.15311400  0.40812100  1
  H  H30  1  0.84688600  0.09923300  0.09187900  1
  H  H31  1  0.34688600  0.40076700  0.40812100  1
  H  H32  1  0.15311400  0.90076700  0.09187900  1
  H  H33  1  0.59923300  0.65311400  0.09187900  1
  H  H34  1  0.40076700  0.34688600  0.09187900  1
  H  H35  1  0.65311400  0.59923300  0.40812100  1
