# generated using pymatgen
data_NaH6ClO5
_symmetry_space_group_name_H-M   'P 1'
_cell_length_a   5.49585700
_cell_length_b   6.53362402
_cell_length_c   9.00595003
_cell_angle_alpha   108.77732663
_cell_angle_beta   88.02301324
_cell_angle_gamma   109.07403842
_symmetry_Int_Tables_number   1
_chemical_formula_structural   NaH6ClO5
_chemical_formula_sum   'Na2 H12 Cl2 O10'
_cell_volume   288.45859302
_cell_formula_units_Z   2
loop_
 _symmetry_equiv_pos_site_id
 _symmetry_equiv_pos_as_xyz
  1  'x, y, z'
loop_
 _atom_site_type_symbol
 _atom_site_label
 _atom_site_symmetry_multiplicity
 _atom_site_fract_x
 _atom_site_fract_y
 _atom_site_fract_z
 _atom_site_occupancy
  Na  Na0  1  0.73292800  0.45841400  0.60145900  1
  Na  Na1  1  0.26707200  0.54158600  0.39854100  1
  H  H2  1  0.25508500  0.09379500  0.43124400  1
  H  H3  1  0.74491500  0.90620500  0.56875600  1
  H  H4  1  0.15503400  0.23460800  0.58077300  1
  H  H5  1  0.84496600  0.76539200  0.41922700  1
  H  H6  1  0.70137600  0.31305000  0.25483500  1
  H  H7  1  0.29862400  0.68695000  0.74516500  1
  H  H8  1  0.38252500  0.31448300  0.06540100  1
  H  H9  1  0.61747500  0.68551700  0.93459900  1
  H  H10  1  0.59467600  0.55574200  0.14874600  1
  H  H11  1  0.40532400  0.44425800  0.85125400  1
  H  H12  1  0.19605600  0.88238300  0.73953000  1
  H  H13  1  0.80394400  0.11761700  0.26047000  1
  Cl  Cl14  1  0.08252300  0.81404500  0.13739900  1
  Cl  Cl15  1  0.91747700  0.18595500  0.86260100  1
  O  O16  1  0.71009900  0.74758900  0.49323800  1
  O  O17  1  0.28990100  0.25241100  0.50676200  1
  O  O18  1  0.48970600  0.40929200  0.16504300  1
  O  O19  1  0.51029400  0.59070800  0.83495700  1
  O  O20  1  0.20418600  0.17802500  0.86983800  1
  O  O21  1  0.79581400  0.82197500  0.13016200  1
  O  O22  1  0.84512500  0.18321900  0.69325800  1
  O  O23  1  0.15487500  0.81678100  0.30674200  1
  O  O24  1  0.18050800  0.72090600  0.68285300  1
  O  O25  1  0.81949200  0.27909400  0.31714700  1
