# generated using pymatgen
data_H6S(NO2)2
_symmetry_space_group_name_H-M   'P 1'
_cell_length_a   5.71410800
_cell_length_b   8.37681400
_cell_length_c   9.15753600
_cell_angle_alpha   90.00000000
_cell_angle_beta   90.00000000
_cell_angle_gamma   90.00000000
_symmetry_Int_Tables_number   1
_chemical_formula_structural   H6S(NO2)2
_chemical_formula_sum   'H24 S4 N8 O16'
_cell_volume   438.33480034
_cell_formula_units_Z   4
loop_
 _symmetry_equiv_pos_site_id
 _symmetry_equiv_pos_as_xyz
  1  'x, y, z'
loop_
 _atom_site_type_symbol
 _atom_site_label
 _atom_site_symmetry_multiplicity
 _atom_site_fract_x
 _atom_site_fract_y
 _atom_site_fract_z
 _atom_site_occupancy
  H  H0  1  0.69674000  0.23918500  0.83199000  1
  H  H1  1  0.19674000  0.26081500  0.16801000  1
  H  H2  1  0.30326000  0.73918500  0.66801000  1
  H  H3  1  0.80326000  0.76081500  0.33199000  1
  H  H4  1  0.92982200  0.15634800  0.92403800  1
  H  H5  1  0.42982200  0.34365200  0.07596200  1
  H  H6  1  0.07017800  0.65634800  0.57596200  1
  H  H7  1  0.57017800  0.84365200  0.42403800  1
  H  H8  1  0.92901500  0.15841900  0.73611800  1
  H  H9  1  0.42901500  0.34158100  0.26388200  1
  H  H10  1  0.07098500  0.65841900  0.76388200  1
  H  H11  1  0.57098500  0.84158100  0.23611800  1
  H  H12  1  0.63575600  0.96286100  0.73470000  1
  H  H13  1  0.13575600  0.53713900  0.26530000  1
  H  H14  1  0.36424400  0.46286100  0.76530000  1
  H  H15  1  0.86424400  0.03713900  0.23470000  1
  H  H16  1  0.59875800  0.99021700  0.92310600  1
  H  H17  1  0.09875800  0.50978300  0.07689400  1
  H  H18  1  0.40124200  0.49021700  0.57689400  1
  H  H19  1  0.90124200  0.00978300  0.42310600  1
  H  H20  1  0.35907700  0.58729300  0.14382500  1
  H  H21  1  0.14092300  0.41270700  0.64382500  1
  H  H22  1  0.64092300  0.08729300  0.35617500  1
  H  H23  1  0.85907700  0.91270700  0.85617500  1
  S  S24  1  0.29272300  0.05373300  0.56751800  1
  S  S25  1  0.79272300  0.44626700  0.43248200  1
  S  S26  1  0.70727700  0.55373300  0.93248200  1
  S  S27  1  0.20727700  0.94626700  0.06751800  1
  N  N28  1  0.67486700  0.85104500  0.32870600  1
  N  N29  1  0.17486700  0.64895500  0.67129400  1
  N  N30  1  0.32513300  0.35104500  0.17129400  1
  N  N31  1  0.82513300  0.14895500  0.82870600  1
  N  N32  1  0.22179700  0.50805900  0.16650200  1
  N  N33  1  0.27820300  0.49194100  0.66650200  1
  N  N34  1  0.77820300  0.00805900  0.33349800  1
  N  N35  1  0.72179700  0.99194100  0.83349800  1
  O  O36  1  0.35140100  0.12806200  0.42547600  1
  O  O37  1  0.85140100  0.37193800  0.57452400  1
  O  O38  1  0.64859900  0.62806200  0.07452400  1
  O  O39  1  0.14859900  0.87193800  0.92547600  1
  O  O40  1  0.31898000  0.16443200  0.69138300  1
  O  O41  1  0.81898000  0.33556800  0.30861700  1
  O  O42  1  0.68102000  0.66443200  0.80861700  1
  O  O43  1  0.18102000  0.83556800  0.19138300  1
  O  O44  1  0.04756200  0.98864500  0.56592200  1
  O  O45  1  0.54756200  0.51135500  0.43407800  1
  O  O46  1  0.95243800  0.48864500  0.93407800  1
  O  O47  1  0.45243800  0.01135500  0.06592200  1
  O  O48  1  0.45787200  0.91134400  0.59063500  1
  O  O49  1  0.95787200  0.58865600  0.40936500  1
  O  O50  1  0.54212800  0.41134400  0.90936500  1
  O  O51  1  0.04212800  0.08865600  0.09063500  1
