# generated using pymatgen
data_AlAu2
_symmetry_space_group_name_H-M   'P 1'
_cell_length_a   5.07930990
_cell_length_b   5.07930990
_cell_length_c   5.07930990
_cell_angle_alpha   141.23937521
_cell_angle_beta   141.23937521
_cell_angle_gamma   55.97622959
_symmetry_Int_Tables_number   1
_chemical_formula_structural   AlAu2
_chemical_formula_sum   'Al1 Au2'
_cell_volume   50.96905451
_cell_formula_units_Z   1
loop_
 _symmetry_equiv_pos_site_id
 _symmetry_equiv_pos_as_xyz
  1  'x, y, z'
loop_
 _atom_site_type_symbol
 _atom_site_label
 _atom_site_symmetry_multiplicity
 _atom_site_fract_x
 _atom_site_fract_y
 _atom_site_fract_z
 _atom_site_occupancy
  Al  Al0  1  0.00000000  0.00000000  0.00000000  1
  Au  Au1  1  0.65593500  0.65593500  0.00000000  1
  Au  Au2  1  0.34406500  0.34406500  0.00000000  1
