# generated using pymatgen
data_Si3H9N
_symmetry_space_group_name_H-M   'P 1'
_cell_length_a   7.03683400
_cell_length_b   7.09494925
_cell_length_c   8.50191484
_cell_angle_alpha   95.40610512
_cell_angle_beta   99.37999003
_cell_angle_gamma   118.78240116
_symmetry_Int_Tables_number   1
_chemical_formula_structural   Si3H9N
_chemical_formula_sum   'Si6 H18 N2'
_cell_volume   359.65780468
_cell_formula_units_Z   2
loop_
 _symmetry_equiv_pos_site_id
 _symmetry_equiv_pos_as_xyz
  1  'x, y, z'
loop_
 _atom_site_type_symbol
 _atom_site_label
 _atom_site_symmetry_multiplicity
 _atom_site_fract_x
 _atom_site_fract_y
 _atom_site_fract_z
 _atom_site_occupancy
  Si  Si0  1  0.23060100  0.30330300  0.20352100  1
  Si  Si1  1  0.76939900  0.69669700  0.79647900  1
  Si  Si2  1  0.71910200  0.44080600  0.26947000  1
  Si  Si3  1  0.28089800  0.55919400  0.73053000  1
  Si  Si4  1  0.41659200  0.21339700  0.72382800  1
  Si  Si5  1  0.58340800  0.78660300  0.27617200  1
  H  H6  1  0.37325900  0.79411600  0.26582800  1
  H  H7  1  0.62674100  0.20588400  0.73417200  1
  H  H8  1  0.74092900  0.91324500  0.43742300  1
  H  H9  1  0.25907100  0.08675500  0.56257700  1
  H  H10  1  0.69324900  0.89270000  0.14711500  1
  H  H11  1  0.30675100  0.10730000  0.85288500  1
  H  H12  1  0.12366400  0.31202900  0.34030700  1
  H  H13  1  0.87633600  0.68797100  0.65969300  1
  H  H14  1  0.30155800  0.69890700  0.60579900  1
  H  H15  1  0.69844200  0.30109300  0.39420100  1
  H  H16  1  0.06021800  0.35140700  0.67846700  1
  H  H17  1  0.93978200  0.64859300  0.32153300  1
  H  H18  1  0.29327200  0.68293100  0.88769900  1
  H  H19  1  0.70672800  0.31706900  0.11230100  1
  H  H20  1  0.77676500  0.91154100  0.82364000  1
  H  H21  1  0.22323500  0.08845900  0.17636000  1
  H  H22  1  0.89981800  0.67879500  0.94570800  1
  H  H23  1  0.10018200  0.32120500  0.05429200  1
  N  N24  1  0.48914600  0.48924500  0.75032500  1
  N  N25  1  0.51085400  0.51075500  0.24967500  1
