# generated using pymatgen
data_Dy(HO)3
_symmetry_space_group_name_H-M   'P 1'
_cell_length_a   6.35839560
_cell_length_b   6.35839560
_cell_length_c   3.54362000
_cell_angle_alpha   90.00000000
_cell_angle_beta   90.00000000
_cell_angle_gamma   119.99999582
_symmetry_Int_Tables_number   1
_chemical_formula_structural   Dy(HO)3
_chemical_formula_sum   'Dy2 H6 O6'
_cell_volume   124.07174311
_cell_formula_units_Z   2
loop_
 _symmetry_equiv_pos_site_id
 _symmetry_equiv_pos_as_xyz
  1  'x, y, z'
loop_
 _atom_site_type_symbol
 _atom_site_label
 _atom_site_symmetry_multiplicity
 _atom_site_fract_x
 _atom_site_fract_y
 _atom_site_fract_z
 _atom_site_occupancy
  Dy  Dy0  1  0.66666700  0.33333300  0.75000000  1
  Dy  Dy1  1  0.33333300  0.66666700  0.25000000  1
  H  H2  1  0.71967300  0.86046300  0.75000000  1
  H  H3  1  0.85921000  0.71967300  0.25000000  1
  H  H4  1  0.14079000  0.28032700  0.75000000  1
  H  H5  1  0.28032700  0.13953700  0.25000000  1
  H  H6  1  0.86046300  0.14079000  0.25000000  1
  H  H7  1  0.13953700  0.85921000  0.75000000  1
  O  O8  1  0.91493000  0.60230600  0.25000000  1
  O  O9  1  0.60230600  0.68737600  0.75000000  1
  O  O10  1  0.08507000  0.39769400  0.75000000  1
  O  O11  1  0.39769400  0.31262400  0.25000000  1
  O  O12  1  0.68737600  0.08507000  0.25000000  1
  O  O13  1  0.31262400  0.91493000  0.75000000  1
