# generated using pymatgen
data_Ca2H3Br
_symmetry_space_group_name_H-M   'P 1'
_cell_length_a   3.90359934
_cell_length_b   3.90359934
_cell_length_c   6.92728000
_cell_angle_alpha   90.00000000
_cell_angle_beta   90.00000000
_cell_angle_gamma   119.99998875
_symmetry_Int_Tables_number   1
_chemical_formula_structural   Ca2H3Br
_chemical_formula_sum   'Ca2 H3 Br1'
_cell_volume   91.41635356
_cell_formula_units_Z   1
loop_
 _symmetry_equiv_pos_site_id
 _symmetry_equiv_pos_as_xyz
  1  'x, y, z'
loop_
 _atom_site_type_symbol
 _atom_site_label
 _atom_site_symmetry_multiplicity
 _atom_site_fract_x
 _atom_site_fract_y
 _atom_site_fract_z
 _atom_site_occupancy
  Ca  Ca0  1  0.66666700  0.33333300  0.18399600  1
  Ca  Ca1  1  0.33333300  0.66666700  0.81600400  1
  H  H2  1  0.66666700  0.33333300  0.85422500  1
  H  H3  1  0.33333300  0.66666700  0.14577500  1
  H  H4  1  0.00000000  0.00000000  0.00000000  1
  Br  Br5  1  0.00000000  0.00000000  0.50000000  1
