# generated using pymatgen
data_CaPH3O4
_symmetry_space_group_name_H-M   'P 1'
_cell_length_a   6.79294700
_cell_length_b   7.74876200
_cell_length_c   7.97936929
_cell_angle_alpha   69.87809684
_cell_angle_beta   90.00000000
_cell_angle_gamma   90.00000000
_symmetry_Int_Tables_number   1
_chemical_formula_structural   CaPH3O4
_chemical_formula_sum   'Ca4 P4 H12 O16'
_cell_volume   394.37329925
_cell_formula_units_Z   4
loop_
 _symmetry_equiv_pos_site_id
 _symmetry_equiv_pos_as_xyz
  1  'x, y, z'
loop_
 _atom_site_type_symbol
 _atom_site_label
 _atom_site_symmetry_multiplicity
 _atom_site_fract_x
 _atom_site_fract_y
 _atom_site_fract_z
 _atom_site_occupancy
  Ca  Ca0  1  0.87156000  0.38976500  0.35189500  1
  Ca  Ca1  1  0.37156000  0.61023500  0.14810500  1
  Ca  Ca2  1  0.12844000  0.61023500  0.64810500  1
  Ca  Ca3  1  0.62844000  0.38976500  0.85189500  1
  P  P4  1  0.86629500  0.72415900  0.98901600  1
  P  P5  1  0.36629500  0.27584100  0.51098400  1
  P  P6  1  0.13370500  0.27584100  0.01098400  1
  P  P7  1  0.63370500  0.72415900  0.48901600  1
  H  H8  1  0.94567900  0.18713500  0.72234300  1
  H  H9  1  0.44567900  0.81286500  0.77765700  1
  H  H10  1  0.05432100  0.81286500  0.27765700  1
  H  H11  1  0.55432100  0.18713500  0.22234300  1
  H  H12  1  0.91887700  0.00347500  0.67929200  1
  H  H13  1  0.41887700  0.99652500  0.82070800  1
  H  H14  1  0.08112300  0.99652500  0.32070800  1
  H  H15  1  0.58112300  0.00347500  0.17929200  1
  H  H16  1  0.22630400  0.11409500  0.00924600  1
  H  H17  1  0.72630400  0.88590500  0.49075400  1
  H  H18  1  0.77369600  0.88590500  0.99075400  1
  H  H19  1  0.27369600  0.11409500  0.50924600  1
  O  O20  1  0.90478000  0.13920200  0.62750700  1
  O  O21  1  0.78954000  0.56723700  0.54184600  1
  O  O22  1  0.21046000  0.43276300  0.45815400  1
  O  O23  1  0.71046000  0.56723700  0.04184600  1
  O  O24  1  0.47557300  0.67555100  0.63852000  1
  O  O25  1  0.97557300  0.32444900  0.86148000  1
  O  O26  1  0.52442700  0.32444900  0.36148000  1
  O  O27  1  0.02442700  0.67555100  0.13852000  1
  O  O28  1  0.55234600  0.76550900  0.30037600  1
  O  O29  1  0.05234600  0.23449100  0.19962400  1
  O  O30  1  0.44765400  0.23449100  0.69962400  1
  O  O31  1  0.94765400  0.76550900  0.80037600  1
  O  O32  1  0.09522000  0.86079800  0.37249300  1
  O  O33  1  0.59522000  0.13920200  0.12750700  1
  O  O34  1  0.28954000  0.43276300  0.95815400  1
  O  O35  1  0.40478000  0.86079800  0.87249300  1
