# generated using pymatgen
data_KPH3O4F
_symmetry_space_group_name_H-M   'P 1'
_cell_length_a   7.71740700
_cell_length_b   6.73522700
_cell_length_c   9.58192009
_cell_angle_alpha   79.09405924
_cell_angle_beta   90.00000000
_cell_angle_gamma   90.00000000
_symmetry_Int_Tables_number   1
_chemical_formula_structural   KPH3O4F
_chemical_formula_sum   'K4 P4 H12 O16 F4'
_cell_volume   489.05842053
_cell_formula_units_Z   4
loop_
 _symmetry_equiv_pos_site_id
 _symmetry_equiv_pos_as_xyz
  1  'x, y, z'
loop_
 _atom_site_type_symbol
 _atom_site_label
 _atom_site_symmetry_multiplicity
 _atom_site_fract_x
 _atom_site_fract_y
 _atom_site_fract_z
 _atom_site_occupancy
  K  K0  1  0.72328200  0.15907200  0.95710000  1
  K  K1  1  0.22328200  0.84092800  0.54290000  1
  K  K2  1  0.27671800  0.84092800  0.04290000  1
  K  K3  1  0.77671800  0.15907200  0.45710000  1
  P  P4  1  0.20062000  0.38269500  0.82842600  1
  P  P5  1  0.70062000  0.61730500  0.67157400  1
  P  P6  1  0.79938000  0.61730500  0.17157400  1
  P  P7  1  0.29938000  0.38269500  0.32842600  1
  H  H8  1  0.02674900  0.11239800  0.76024900  1
  H  H9  1  0.52674900  0.88760200  0.73975100  1
  H  H10  1  0.97325100  0.88760200  0.23975100  1
  H  H11  1  0.47325100  0.11239800  0.26024900  1
  H  H12  1  0.97900800  0.59301100  0.83455700  1
  H  H13  1  0.47900800  0.40698900  0.66544300  1
  H  H14  1  0.02099200  0.40698900  0.16544300  1
  H  H15  1  0.52099200  0.59301100  0.33455700  1
  H  H16  1  0.81214700  0.62986800  0.46127200  1
  H  H17  1  0.31214700  0.37013200  0.03872800  1
  H  H18  1  0.18785300  0.37013200  0.53872800  1
  H  H19  1  0.68785300  0.62986800  0.96127200  1
  O  O20  1  0.35467200  0.35702300  0.94002500  1
  O  O21  1  0.38844200  0.58827900  0.34759700  1
  O  O22  1  0.61155800  0.41172100  0.65240300  1
  O  O23  1  0.11155800  0.58827900  0.84759700  1
  O  O24  1  0.21834600  0.40699200  0.18058600  1
  O  O25  1  0.71834600  0.59300800  0.31941400  1
  O  O26  1  0.78165400  0.59300800  0.81941400  1
  O  O27  1  0.28165400  0.40699200  0.68058600  1
  O  O28  1  0.42724300  0.20626200  0.36316200  1
  O  O29  1  0.92724300  0.79373800  0.13683800  1
  O  O30  1  0.57275700  0.79373800  0.63683800  1
  O  O31  1  0.07275700  0.20626200  0.86316200  1
  O  O32  1  0.64532800  0.64297700  0.05997500  1
  O  O33  1  0.14532800  0.35702300  0.44002500  1
  O  O34  1  0.88844200  0.41172100  0.15240300  1
  O  O35  1  0.85467200  0.64297700  0.55997500  1
  F  F36  1  0.98211700  0.03510000  0.68024100  1
  F  F37  1  0.48211700  0.96490000  0.81975900  1
  F  F38  1  0.01788300  0.96490000  0.31975900  1
  F  F39  1  0.51788300  0.03510000  0.18024100  1
