# generated using pymatgen
data_K(BH)5
_symmetry_space_group_name_H-M   'P 1'
_cell_length_a   11.26391200
_cell_length_b   6.81208800
_cell_length_c   14.50182435
_cell_angle_alpha   64.94095025
_cell_angle_beta   90.00000000
_cell_angle_gamma   90.00000000
_symmetry_Int_Tables_number   1
_chemical_formula_structural   K(BH)5
_chemical_formula_sum   'K8 B40 H40'
_cell_volume   1007.99610781
_cell_formula_units_Z   8
loop_
 _symmetry_equiv_pos_site_id
 _symmetry_equiv_pos_as_xyz
  1  'x, y, z'
loop_
 _atom_site_type_symbol
 _atom_site_label
 _atom_site_symmetry_multiplicity
 _atom_site_fract_x
 _atom_site_fract_y
 _atom_site_fract_z
 _atom_site_occupancy
  K  K0  1  0.63136900  0.81840400  0.44761500  1
  K  K1  1  0.13136900  0.18159600  0.05238500  1
  K  K2  1  0.36863100  0.18159600  0.55238500  1
  K  K3  1  0.86863100  0.81840400  0.94761500  1
  K  K4  1  0.53318700  0.39167300  0.84220200  1
  K  K5  1  0.03318700  0.60832700  0.65779800  1
  K  K6  1  0.46681300  0.60832700  0.15779800  1
  K  K7  1  0.96681300  0.39167300  0.34220200  1
  B  B8  1  0.82416400  0.01574000  0.13294800  1
  B  B9  1  0.32416400  0.98426000  0.36705200  1
  B  B10  1  0.17583600  0.98426000  0.86705200  1
  B  B11  1  0.67583600  0.01574000  0.63294800  1
  B  B12  1  0.72112800  0.39399800  0.13424700  1
  B  B13  1  0.22112800  0.60600200  0.36575300  1
  B  B14  1  0.27887200  0.60600200  0.86575300  1
  B  B15  1  0.77887200  0.39399800  0.63424700  1
  B  B16  1  0.64111100  0.18747700  0.22098600  1
  B  B17  1  0.14111100  0.81252300  0.27901400  1
  B  B18  1  0.35888900  0.81252300  0.77901400  1
  B  B19  1  0.85888900  0.18747700  0.72098600  1
  B  B20  1  0.72811800  0.37978000  0.01293200  1
  B  B21  1  0.22811800  0.62022000  0.48706800  1
  B  B22  1  0.27188200  0.62022000  0.98706800  1
  B  B23  1  0.77188200  0.37978000  0.51293200  1
  B  B24  1  0.85647000  0.30208500  0.09903300  1
  B  B25  1  0.35647000  0.69791500  0.40096700  1
  B  B26  1  0.14353000  0.69791500  0.90096700  1
  B  B27  1  0.64353000  0.30208500  0.59903300  1
  B  B28  1  0.60743700  0.24594500  0.09785300  1
  B  B29  1  0.10743700  0.75405500  0.40214700  1
  B  B30  1  0.39256300  0.75405500  0.90214700  1
  B  B31  1  0.89256300  0.24594500  0.59785300  1
  B  B32  1  0.78867700  0.13627600  0.21958800  1
  B  B33  1  0.28867700  0.86372400  0.28041200  1
  B  B34  1  0.21132300  0.86372400  0.78041200  1
  B  B35  1  0.71132300  0.13627600  0.71958800  1
  B  B36  1  0.69684800  0.09476700  0.04698200  1
  B  B37  1  0.19684800  0.90523300  0.45301800  1
  B  B38  1  0.30315200  0.90523300  0.95301800  1
  B  B39  1  0.80315200  0.09476700  0.54698200  1
  B  B40  1  0.67533700  0.98954000  0.18309700  1
  B  B41  1  0.17533700  0.01046000  0.31690300  1
  B  B42  1  0.32466300  0.01046000  0.81690300  1
  B  B43  1  0.82466300  0.98954000  0.68309700  1
  B  B44  1  0.83449700  0.20552000  0.00988800  1
  B  B45  1  0.33449700  0.79448000  0.49011200  1
  B  B46  1  0.16550300  0.79448000  0.99011200  1
  B  B47  1  0.66550300  0.20552000  0.50988800  1
  H  H48  1  0.88604100  0.85697600  0.16209700  1
  H  H49  1  0.38604100  0.14302400  0.33790300  1
  H  H50  1  0.11395900  0.14302400  0.83790300  1
  H  H51  1  0.61395900  0.85697600  0.66209700  1
  H  H52  1  0.70594800  0.54120000  0.93696800  1
  H  H53  1  0.20594800  0.45880000  0.56303200  1
  H  H54  1  0.29405200  0.45880000  0.06303200  1
  H  H55  1  0.79405200  0.54120000  0.43696800  1
  H  H56  1  0.72051900  0.56970400  0.13572900  1
  H  H57  1  0.22051900  0.43029600  0.36427100  1
  H  H58  1  0.27948100  0.43029600  0.86427100  1
  H  H59  1  0.77948100  0.56970400  0.63572900  1
  H  H60  1  0.57805800  0.18671900  0.28742200  1
  H  H61  1  0.07805800  0.81328100  0.21257800  1
  H  H62  1  0.42194200  0.81328100  0.71257800  1
  H  H63  1  0.92194200  0.18671900  0.78742200  1
  H  H64  1  0.84761100  0.08263700  0.29580800  1
  H  H65  1  0.34761100  0.91736300  0.20419200  1
  H  H66  1  0.15238900  0.91736300  0.70419200  1
  H  H67  1  0.65238900  0.08263700  0.79580800  1
  H  H68  1  0.64717500  0.00615000  0.00099700  1
  H  H69  1  0.14717500  0.99385000  0.49900300  1
  H  H70  1  0.35282500  0.99385000  0.99900300  1
  H  H71  1  0.85282500  0.00615000  0.50099700  1
  H  H72  1  0.89704500  0.21805800  0.94072800  1
  H  H73  1  0.39704500  0.78194200  0.55927200  1
  H  H74  1  0.10295500  0.78194200  0.05927200  1
  H  H75  1  0.60295500  0.21805800  0.44072800  1
  H  H76  1  0.50691200  0.29221100  0.06814100  1
  H  H77  1  0.00691200  0.70778900  0.43185900  1
  H  H78  1  0.49308800  0.70778900  0.93185900  1
  H  H79  1  0.99308800  0.29221100  0.56814100  1
  H  H80  1  0.94681400  0.39823900  0.09883800  1
  H  H81  1  0.44681400  0.60176100  0.40116200  1
  H  H82  1  0.05318600  0.60176100  0.90116200  1
  H  H83  1  0.55318600  0.39823900  0.59883800  1
  H  H84  1  0.63578200  0.80935300  0.22904900  1
  H  H85  1  0.13578200  0.19064700  0.27095100  1
  H  H86  1  0.36421800  0.19064700  0.77095100  1
  H  H87  1  0.86421800  0.80935300  0.72904900  1
