# generated using pymatgen
data_CeZnGa
_symmetry_space_group_name_H-M   'P 1'
_cell_length_a   4.49154246
_cell_length_b   4.49154246
_cell_length_c   7.47396200
_cell_angle_alpha   90.00000000
_cell_angle_beta   90.00000000
_cell_angle_gamma   120.00000671
_symmetry_Int_Tables_number   1
_chemical_formula_structural   CeZnGa
_chemical_formula_sum   'Ce2 Zn2 Ga2'
_cell_volume   130.57874973
_cell_formula_units_Z   2
loop_
 _symmetry_equiv_pos_site_id
 _symmetry_equiv_pos_as_xyz
  1  'x, y, z'
loop_
 _atom_site_type_symbol
 _atom_site_label
 _atom_site_symmetry_multiplicity
 _atom_site_fract_x
 _atom_site_fract_y
 _atom_site_fract_z
 _atom_site_occupancy
  Ce  Ce0  1  0.00000000  0.00000000  0.50000000  1
  Ce  Ce1  1  0.00000000  0.00000000  0.00000000  1
  Zn  Zn2  1  0.33333300  0.66666700  0.75000000  1
  Zn  Zn3  1  0.66666700  0.33333300  0.25000000  1
  Ga  Ga4  1  0.33333300  0.66666700  0.25000000  1
  Ga  Ga5  1  0.66666700  0.33333300  0.75000000  1
