# generated using pymatgen
data_RbHCO2
_symmetry_space_group_name_H-M   'P 1'
_cell_length_a   4.72613800
_cell_length_b   7.50851200
_cell_length_c   9.38712000
_cell_angle_alpha   90.00000000
_cell_angle_beta   90.00000000
_cell_angle_gamma   90.00000000
_symmetry_Int_Tables_number   1
_chemical_formula_structural   RbHCO2
_chemical_formula_sum   'Rb4 H4 C4 O8'
_cell_volume   333.11381746
_cell_formula_units_Z   4
loop_
 _symmetry_equiv_pos_site_id
 _symmetry_equiv_pos_as_xyz
  1  'x, y, z'
loop_
 _atom_site_type_symbol
 _atom_site_label
 _atom_site_symmetry_multiplicity
 _atom_site_fract_x
 _atom_site_fract_y
 _atom_site_fract_z
 _atom_site_occupancy
  Rb  Rb0  1  0.93868000  0.50000000  0.25000000  1
  Rb  Rb1  1  0.06132000  0.00000000  0.75000000  1
  Rb  Rb2  1  0.06132000  0.50000000  0.75000000  1
  Rb  Rb3  1  0.93868000  0.00000000  0.25000000  1
  H  H4  1  0.43798400  0.75000000  0.02796700  1
  H  H5  1  0.43798400  0.25000000  0.47203300  1
  H  H6  1  0.56201600  0.75000000  0.52796700  1
  H  H7  1  0.56201600  0.25000000  0.97203300  1
  C  C8  1  0.38333700  0.25000000  0.05010500  1
  C  C9  1  0.38333700  0.75000000  0.44989500  1
  C  C10  1  0.61666300  0.75000000  0.94989500  1
  C  C11  1  0.61666300  0.25000000  0.55010500  1
  O  O12  1  0.13380800  0.25000000  0.99940100  1
  O  O13  1  0.13380800  0.75000000  0.50059900  1
  O  O14  1  0.86619200  0.25000000  0.49940100  1
  O  O15  1  0.86619200  0.75000000  0.00059900  1
  O  O16  1  0.44854700  0.25000000  0.18155400  1
  O  O17  1  0.44854700  0.75000000  0.31844600  1
  O  O18  1  0.55145300  0.75000000  0.81844600  1
  O  O19  1  0.55145300  0.25000000  0.68155400  1
