# generated using pymatgen
data_PH10N2O4F
_symmetry_space_group_name_H-M   'P 1'
_cell_length_a   8.36700400
_cell_length_b   6.37873700
_cell_length_c   12.73254202
_cell_angle_alpha   81.08188285
_cell_angle_beta   90.00000000
_cell_angle_gamma   90.00000000
_symmetry_Int_Tables_number   1
_chemical_formula_structural   PH10N2O4F
_chemical_formula_sum   'P4 H40 N8 O16 F4'
_cell_volume   671.33233638
_cell_formula_units_Z   4
loop_
 _symmetry_equiv_pos_site_id
 _symmetry_equiv_pos_as_xyz
  1  'x, y, z'
loop_
 _atom_site_type_symbol
 _atom_site_label
 _atom_site_symmetry_multiplicity
 _atom_site_fract_x
 _atom_site_fract_y
 _atom_site_fract_z
 _atom_site_occupancy
  P  P0  1  0.92211700  0.19493100  0.64451800  1
  P  P1  1  0.42211700  0.80506900  0.85548200  1
  P  P2  1  0.07788300  0.80506900  0.35548200  1
  P  P3  1  0.57788300  0.19493100  0.14451800  1
  H  H4  1  0.93474500  0.87118500  0.82504000  1
  H  H5  1  0.43474500  0.12881500  0.67496000  1
  H  H6  1  0.06525500  0.12881500  0.17496000  1
  H  H7  1  0.56525500  0.87118500  0.32504000  1
  H  H8  1  0.57509900  0.20363500  0.59489400  1
  H  H9  1  0.07509900  0.79636500  0.90510600  1
  H  H10  1  0.42490100  0.79636500  0.40510600  1
  H  H11  1  0.92490100  0.20363500  0.09489400  1
  H  H12  1  0.77603200  0.80494400  0.62087600  1
  H  H13  1  0.27603200  0.19505600  0.87912400  1
  H  H14  1  0.22396800  0.19505600  0.37912400  1
  H  H15  1  0.72396800  0.80494400  0.12087600  1
  H  H16  1  0.72354000  0.55890500  0.59523300  1
  H  H17  1  0.22354000  0.44109500  0.90476700  1
  H  H18  1  0.27646000  0.44109500  0.40476700  1
  H  H19  1  0.77646000  0.55890500  0.09523300  1
  H  H20  1  0.63735800  0.77417200  0.52361200  1
  H  H21  1  0.60048000  0.19913500  0.84244800  1
  H  H22  1  0.13735800  0.22582800  0.97638800  1
  H  H23  1  0.86264200  0.77417200  0.02361200  1
  H  H24  1  0.59375300  0.70680100  0.65680700  1
  H  H25  1  0.09375300  0.29319900  0.84319300  1
  H  H26  1  0.40624700  0.29319900  0.34319300  1
  H  H27  1  0.90624700  0.70680100  0.15680700  1
  H  H28  1  0.78073000  0.32703000  0.81358000  1
  H  H29  1  0.28073000  0.67297000  0.68642000  1
  H  H30  1  0.21927000  0.67297000  0.18642000  1
  H  H31  1  0.71927000  0.32703000  0.31358000  1
  H  H32  1  0.69659700  0.31126500  0.93812400  1
  H  H33  1  0.19659700  0.68873500  0.56187600  1
  H  H34  1  0.30340300  0.68873500  0.06187600  1
  H  H35  1  0.80340300  0.31126500  0.43812400  1
  H  H36  1  0.89134300  0.46250800  0.33022600  1
  H  H37  1  0.39134300  0.53749200  0.16977400  1
  H  H38  1  0.10865700  0.53749200  0.66977400  1
  H  H39  1  0.60865700  0.46250800  0.83022600  1
  H  H40  1  0.89952000  0.19913500  0.34244800  1
  H  H41  1  0.39952000  0.80086500  0.15755200  1
  H  H42  1  0.10048000  0.80086500  0.65755200  1
  H  H43  1  0.36264200  0.22582800  0.47638800  1
  N  N44  1  0.82623000  0.32485000  0.35617400  1
  N  N45  1  0.32623000  0.67515000  0.14382600  1
  N  N46  1  0.17377000  0.67515000  0.64382600  1
  N  N47  1  0.67377000  0.32485000  0.85617400  1
  N  N48  1  0.68264800  0.71177300  0.59894100  1
  N  N49  1  0.18264800  0.28822700  0.90105900  1
  N  N50  1  0.31735200  0.28822700  0.40105900  1
  N  N51  1  0.81735200  0.71177300  0.09894100  1
  O  O52  1  0.95839900  0.82177400  0.90094100  1
  O  O53  1  0.04160100  0.17822600  0.09905900  1
  O  O54  1  0.45839900  0.17822600  0.59905900  1
  O  O55  1  0.54160100  0.82177400  0.40094100  1
  O  O56  1  0.92319800  0.95588600  0.68244100  1
  O  O57  1  0.42319800  0.04411400  0.81755900  1
  O  O58  1  0.07680200  0.04411400  0.31755900  1
  O  O59  1  0.57680200  0.95588600  0.18244100  1
  O  O60  1  0.53792500  0.33084700  0.23005900  1
  O  O61  1  0.27754300  0.72213800  0.92306600  1
  O  O62  1  0.22245700  0.72213800  0.42306600  1
  O  O63  1  0.72245700  0.27786200  0.07693400  1
  O  O64  1  0.96207500  0.33084700  0.73005900  1
  O  O65  1  0.46207500  0.66915300  0.76994100  1
  O  O66  1  0.03792500  0.66915300  0.26994100  1
  O  O67  1  0.77754300  0.27786200  0.57693400  1
  F  F68  1  0.57101400  0.76581500  0.93775700  1
  F  F69  1  0.07101400  0.23418500  0.56224300  1
  F  F70  1  0.42898600  0.23418500  0.06224300  1
  F  F71  1  0.92898600  0.76581500  0.43775700  1
