# generated using pymatgen
data_MgH14SO11
_symmetry_space_group_name_H-M   'P 1'
_cell_length_a   6.80479100
_cell_length_b   11.99295800
_cell_length_c   12.08126500
_cell_angle_alpha   90.00000000
_cell_angle_beta   90.00000000
_cell_angle_gamma   90.00000000
_symmetry_Int_Tables_number   1
_chemical_formula_structural   MgH14SO11
_chemical_formula_sum   'Mg4 H56 S4 O44'
_cell_volume   985.94687386
_cell_formula_units_Z   4
loop_
 _symmetry_equiv_pos_site_id
 _symmetry_equiv_pos_as_xyz
  1  'x, y, z'
loop_
 _atom_site_type_symbol
 _atom_site_label
 _atom_site_symmetry_multiplicity
 _atom_site_fract_x
 _atom_site_fract_y
 _atom_site_fract_z
 _atom_site_occupancy
  Mg  Mg0  1  0.03766700  0.41932200  0.10676500  1
  Mg  Mg1  1  0.53766700  0.08067800  0.89323500  1
  Mg  Mg2  1  0.96233300  0.91932200  0.39323500  1
  Mg  Mg3  1  0.46233300  0.58067800  0.60676500  1
  H  H4  1  0.48200200  0.51608200  0.86786700  1
  H  H5  1  0.98200200  0.98391800  0.13213300  1
  H  H6  1  0.51799800  0.01608200  0.63213300  1
  H  H7  1  0.01799800  0.48391800  0.36786700  1
  H  H8  1  0.53847700  0.56522700  0.98508700  1
  H  H9  1  0.03847700  0.93477300  0.01491300  1
  H  H10  1  0.46152300  0.06522700  0.51491300  1
  H  H11  1  0.96152300  0.43477300  0.48508700  1
  H  H12  1  0.10423500  0.59642500  0.50115400  1
  H  H13  1  0.60423500  0.90357500  0.49884600  1
  H  H14  1  0.89576500  0.09642500  0.99884600  1
  H  H15  1  0.39576500  0.40357500  0.00115400  1
  H  H16  1  0.17461400  0.72148400  0.53080800  1
  H  H17  1  0.67461400  0.77851600  0.46919200  1
  H  H18  1  0.82538600  0.22148400  0.96919200  1
  H  H19  1  0.32538600  0.27851600  0.03080800  1
  H  H20  1  0.73335000  0.58235200  0.44230200  1
  H  H21  1  0.23335000  0.91764800  0.55769800  1
  H  H22  1  0.26665000  0.08235200  0.05769800  1
  H  H23  1  0.76665000  0.41764800  0.94230200  1
  H  H24  1  0.53462300  0.63684200  0.39219800  1
  H  H25  1  0.03462300  0.86315800  0.60780200  1
  H  H26  1  0.46537700  0.13684200  0.10780200  1
  H  H27  1  0.96537700  0.36315800  0.89219800  1
  H  H28  1  0.47787900  0.39481000  0.47249200  1
  H  H29  1  0.97787900  0.10519000  0.52750800  1
  H  H30  1  0.39799900  0.76699100  0.72520700  1
  H  H31  1  0.52212100  0.89481000  0.02750800  1
  H  H32  1  0.30050700  0.37884400  0.55544900  1
  H  H33  1  0.80050700  0.12115600  0.44455100  1
  H  H34  1  0.69949300  0.87884400  0.94455100  1
  H  H35  1  0.19949300  0.62115600  0.05544900  1
  H  H36  1  0.75890000  0.45361300  0.68515100  1
  H  H37  1  0.25890000  0.04638700  0.31484900  1
  H  H38  1  0.24110000  0.95361300  0.81484900  1
  H  H39  1  0.74110000  0.54638700  0.18515100  1
  H  H40  1  0.81110300  0.57745900  0.72646700  1
  H  H41  1  0.31110300  0.92254100  0.27353300  1
  H  H42  1  0.18889700  0.07745900  0.77353300  1
  H  H43  1  0.68889700  0.42254100  0.22646700  1
  H  H44  1  0.24086400  0.45226800  0.75481500  1
  H  H45  1  0.74086400  0.04773200  0.24518500  1
  H  H46  1  0.75913600  0.95226800  0.74518500  1
  H  H47  1  0.25913600  0.54773200  0.25481500  1
  H  H48  1  0.19578100  0.57946200  0.77542900  1
  H  H49  1  0.69578100  0.92053800  0.22457100  1
  H  H50  1  0.80421900  0.07946200  0.72457100  1
  H  H51  1  0.30421900  0.42053800  0.27542900  1
  H  H52  1  0.63086700  0.76533300  0.70071700  1
  H  H53  1  0.13086700  0.73466700  0.29928300  1
  H  H54  1  0.36913300  0.26533300  0.79928300  1
  H  H55  1  0.86913300  0.23466700  0.20071700  1
  H  H56  1  0.10200100  0.23300900  0.22520700  1
  H  H57  1  0.60200100  0.26699100  0.77479300  1
  H  H58  1  0.89799900  0.73300900  0.27479300  1
  H  H59  1  0.02212100  0.60519000  0.97249200  1
  S  S60  1  0.49652400  0.72080200  0.17983800  1
  S  S61  1  0.99652400  0.77919800  0.82016200  1
  S  S62  1  0.50347600  0.22080200  0.32016200  1
  S  S63  1  0.00347600  0.27919800  0.67983800  1
  O  O64  1  0.55303800  0.49858900  0.93744000  1
  O  O65  1  0.05303800  0.00141100  0.06256000  1
  O  O66  1  0.44696200  0.99858900  0.56256000  1
  O  O67  1  0.94696200  0.50141100  0.43744000  1
  O  O68  1  0.20647500  0.64169400  0.53928700  1
  O  O69  1  0.70647500  0.85830600  0.46071300  1
  O  O70  1  0.79352500  0.14169400  0.96071300  1
  O  O71  1  0.29352500  0.35830600  0.03928700  1
  O  O72  1  0.61516600  0.62860400  0.45984000  1
  O  O73  1  0.11516600  0.87139600  0.54016000  1
  O  O74  1  0.38483400  0.12860400  0.04016000  1
  O  O75  1  0.88483400  0.37139600  0.95984000  1
  O  O76  1  0.42358300  0.42193900  0.54303900  1
  O  O77  1  0.92358300  0.07806100  0.45696100  1
  O  O78  1  0.57641700  0.92193900  0.95696100  1
  O  O79  1  0.07641700  0.57806100  0.04303900  1
  O  O80  1  0.72818300  0.53423600  0.67528200  1
  O  O81  1  0.22818300  0.96576400  0.32471800  1
  O  O82  1  0.27181700  0.03423600  0.82471800  1
  O  O83  1  0.77181700  0.46576400  0.17528200  1
  O  O84  1  0.30329900  0.52759900  0.75323500  1
  O  O85  1  0.80329900  0.97240100  0.24676500  1
  O  O86  1  0.69670100  0.02759900  0.74676500  1
  O  O87  1  0.19670100  0.47240100  0.25323500  1
  O  O88  1  0.50178700  0.73654400  0.67615100  1
  O  O89  1  0.00178700  0.76345600  0.32384900  1
  O  O90  1  0.49821300  0.23654400  0.82384900  1
  O  O91  1  0.99821300  0.26345600  0.17615100  1
  O  O92  1  0.13296200  0.32227200  0.77226700  1
  O  O93  1  0.63296200  0.17772800  0.22773300  1
  O  O94  1  0.86703800  0.82227200  0.72773300  1
  O  O95  1  0.36703800  0.67772800  0.27226700  1
  O  O96  1  0.79826900  0.31605200  0.70138800  1
  O  O97  1  0.29826900  0.18394800  0.29861200  1
  O  O98  1  0.20173100  0.81605200  0.79861200  1
  O  O99  1  0.70173100  0.68394800  0.20138800  1
  O  O100  1  0.01316500  0.15428700  0.67837700  1
  O  O101  1  0.51316500  0.34571300  0.32162300  1
  O  O102  1  0.98683500  0.65428700  0.82162300  1
  O  O103  1  0.48683500  0.84571300  0.17837700  1
  O  O104  1  0.07219100  0.32469700  0.57244100  1
  O  O105  1  0.57219100  0.17530300  0.42755900  1
  O  O106  1  0.92780900  0.82469700  0.92755900  1
  O  O107  1  0.42780900  0.67530300  0.07244100  1
