# generated using pymatgen
data_MgH8SO8
_symmetry_space_group_name_H-M   'P 1'
_cell_length_a   13.64622600
_cell_length_b   6.00944500
_cell_length_c   9.89398498
_cell_angle_alpha   53.30364180
_cell_angle_beta   90.00000000
_cell_angle_gamma   90.00000000
_symmetry_Int_Tables_number   1
_chemical_formula_structural   MgH8SO8
_chemical_formula_sum   'Mg4 H32 S4 O32'
_cell_volume   650.56636327
_cell_formula_units_Z   4
loop_
 _symmetry_equiv_pos_site_id
 _symmetry_equiv_pos_as_xyz
  1  'x, y, z'
loop_
 _atom_site_type_symbol
 _atom_site_label
 _atom_site_symmetry_multiplicity
 _atom_site_fract_x
 _atom_site_fract_y
 _atom_site_fract_z
 _atom_site_occupancy
  Mg  Mg0  1  0.10424300  0.84915200  0.22254600  1
  Mg  Mg1  1  0.60424300  0.15084800  0.27745400  1
  Mg  Mg2  1  0.89575700  0.15084800  0.77745400  1
  Mg  Mg3  1  0.39575700  0.84915200  0.72254600  1
  H  H4  1  0.30813000  0.85407600  0.22627400  1
  H  H5  1  0.80813000  0.14592400  0.27372600  1
  H  H6  1  0.69187000  0.14592400  0.77372600  1
  H  H7  1  0.19187000  0.85407600  0.72627400  1
  H  H8  1  0.23474600  0.04271400  0.77673000  1
  H  H9  1  0.73474600  0.95728600  0.72327000  1
  H  H10  1  0.76525400  0.95728600  0.22327000  1
  H  H11  1  0.26525400  0.04271400  0.27673000  1
  H  H12  1  0.59862000  0.63300000  0.94442500  1
  H  H13  1  0.09862000  0.36700000  0.55557500  1
  H  H14  1  0.31458400  0.34182100  0.95734400  1
  H  H15  1  0.81458400  0.65817900  0.54265600  1
  H  H16  1  0.68541600  0.65817900  0.04265600  1
  H  H17  1  0.18541600  0.34182100  0.45734400  1
  H  H18  1  0.40686000  0.63577300  0.54200000  1
  H  H19  1  0.90686000  0.36422700  0.95800000  1
  H  H20  1  0.59314000  0.36422700  0.45800000  1
  H  H21  1  0.09314000  0.63577300  0.04200000  1
  H  H22  1  0.30911300  0.53613500  0.65056400  1
  H  H23  1  0.80911300  0.46386500  0.84943600  1
  H  H24  1  0.69088700  0.46386500  0.34943600  1
  H  H25  1  0.19088700  0.53613500  0.15056400  1
  H  H26  1  0.48025900  0.13146900  0.82752300  1
  H  H27  1  0.98025900  0.86853100  0.67247700  1
  H  H28  1  0.51974100  0.86853100  0.17247700  1
  H  H29  1  0.01974100  0.13146900  0.32752300  1
  H  H30  1  0.41581000  0.89024200  0.98099900  1
  H  H31  1  0.91581000  0.10975800  0.51900100  1
  H  H32  1  0.58419000  0.10975800  0.01900100  1
  H  H33  1  0.08419000  0.89024200  0.48099900  1
  H  H34  1  0.40138000  0.36700000  0.05557500  1
  H  H35  1  0.90138000  0.63300000  0.44442500  1
  S  S36  1  0.10773300  0.37333800  0.82184500  1
  S  S37  1  0.60773300  0.62666200  0.67815500  1
  S  S38  1  0.89226700  0.62666200  0.17815500  1
  S  S39  1  0.39226700  0.37333800  0.32184500  1
  O  O40  1  0.12748300  0.45047500  0.44314500  1
  O  O41  1  0.62748300  0.54952500  0.05685500  1
  O  O42  1  0.87251700  0.54952500  0.55685500  1
  O  O43  1  0.37251700  0.45047500  0.94314500  1
  O  O44  1  0.85729500  0.31178700  0.91058700  1
  O  O45  1  0.74992100  0.03913400  0.28243400  1
  O  O46  1  0.75007900  0.03913400  0.78243400  1
  O  O47  1  0.25007900  0.96086600  0.71756600  1
  O  O48  1  0.64270500  0.31178700  0.41058700  1
  O  O49  1  0.14270500  0.68821300  0.08941300  1
  O  O50  1  0.42511700  0.00255900  0.85792200  1
  O  O51  1  0.92511700  0.99744100  0.64207800  1
  O  O52  1  0.57488300  0.99744100  0.14207800  1
  O  O53  1  0.07488300  0.00255900  0.35792200  1
  O  O54  1  0.28760700  0.31571200  0.31371200  1
  O  O55  1  0.78760700  0.68428800  0.18628800  1
  O  O56  1  0.71239300  0.68428800  0.68628800  1
  O  O57  1  0.21239300  0.31571200  0.81371200  1
  O  O58  1  0.40788800  0.68249200  0.21580900  1
  O  O59  1  0.90788800  0.31750800  0.28419100  1
  O  O60  1  0.59211200  0.31750800  0.78419100  1
  O  O61  1  0.09211200  0.68249200  0.71580900  1
  O  O62  1  0.42339900  0.25095400  0.49766900  1
  O  O63  1  0.92339900  0.74904600  0.00233100  1
  O  O64  1  0.57660100  0.74904600  0.50233100  1
  O  O65  1  0.07660100  0.25095400  0.99766900  1
  O  O66  1  0.45359600  0.25500200  0.25314400  1
  O  O67  1  0.95359600  0.74499800  0.24685600  1
  O  O68  1  0.54640400  0.74499800  0.74685600  1
  O  O69  1  0.04640400  0.25500200  0.75314400  1
  O  O70  1  0.35729500  0.68821300  0.58941300  1
  O  O71  1  0.24992100  0.96086600  0.21756600  1
