# generated using pymatgen
data_NaZn2H3(SO4)2
_symmetry_space_group_name_H-M   'P 1'
_cell_length_a   6.38264400
_cell_length_b   7.93289345
_cell_length_c   8.99946014
_cell_angle_alpha   99.79430841
_cell_angle_beta   109.57709124
_cell_angle_gamma   112.28069389
_symmetry_Int_Tables_number   1
_chemical_formula_structural   NaZn2H3(SO4)2
_chemical_formula_sum   'Na2 Zn4 H6 S4 O16'
_cell_volume   373.48501053
_cell_formula_units_Z   2
loop_
 _symmetry_equiv_pos_site_id
 _symmetry_equiv_pos_as_xyz
  1  'x, y, z'
loop_
 _atom_site_type_symbol
 _atom_site_label
 _atom_site_symmetry_multiplicity
 _atom_site_fract_x
 _atom_site_fract_y
 _atom_site_fract_z
 _atom_site_occupancy
  Na  Na0  1  0.43557900  0.82591800  0.08994200  1
  Na  Na1  1  0.56442100  0.17408200  0.91005800  1
  Zn  Zn2  1  0.18658200  0.17252300  0.19433500  1
  Zn  Zn3  1  0.81341800  0.82747700  0.80566500  1
  Zn  Zn4  1  0.50000000  0.00000000  0.50000000  1
  Zn  Zn5  1  0.00000000  0.00000000  0.50000000  1
  H  H6  1  0.54991200  0.55794100  0.26965700  1
  H  H7  1  0.45008800  0.44205900  0.73034300  1
  H  H8  1  0.29703900  0.55261000  0.27124800  1
  H  H9  1  0.70296100  0.44739000  0.72875200  1
  H  H10  1  0.38855000  0.28013700  0.50717400  1
  H  H11  1  0.61145000  0.71986300  0.49282600  1
  S  S12  1  0.24076100  0.74575600  0.70298900  1
  S  S13  1  0.93451100  0.70029100  0.15292800  1
  S  S14  1  0.75923900  0.25424400  0.29701100  1
  S  S15  1  0.06548900  0.29970900  0.84707200  1
  O  O16  1  0.40935500  0.49207200  0.29857500  1
  O  O17  1  0.59064500  0.50792800  0.70142500  1
  O  O18  1  0.28925300  0.14398400  0.43131900  1
  O  O19  1  0.71074700  0.85601600  0.56868100  1
  O  O20  1  0.81839300  0.74275200  0.27128400  1
  O  O21  1  0.18160700  0.25724800  0.72871600  1
  O  O22  1  0.79264900  0.25509800  0.73449100  1
  O  O23  1  0.20735100  0.74490200  0.26550900  1
  O  O24  1  0.97067800  0.86338700  0.07408300  1
  O  O25  1  0.02932200  0.13661300  0.92591700  1
  O  O26  1  0.72839800  0.07927600  0.36531900  1
  O  O27  1  0.27160200  0.92072400  0.63468100  1
  O  O28  1  0.50977300  0.82537100  0.84511600  1
  O  O29  1  0.49022700  0.17462900  0.15488400  1
  O  O30  1  0.09640600  0.75648800  0.80699200  1
  O  O31  1  0.90359400  0.24351200  0.19300800  1
