# generated using pymatgen
data_MgH8(IO5)2
_symmetry_space_group_name_H-M   'P 1'
_cell_length_a   6.70157800
_cell_length_b   8.43535500
_cell_length_c   8.53815452
_cell_angle_alpha   79.90829659
_cell_angle_beta   90.00000000
_cell_angle_gamma   90.00000000
_symmetry_Int_Tables_number   1
_chemical_formula_structural   MgH8(IO5)2
_chemical_formula_sum   'Mg2 H16 I4 O20'
_cell_volume   475.19599508
_cell_formula_units_Z   2
loop_
 _symmetry_equiv_pos_site_id
 _symmetry_equiv_pos_as_xyz
  1  'x, y, z'
loop_
 _atom_site_type_symbol
 _atom_site_label
 _atom_site_symmetry_multiplicity
 _atom_site_fract_x
 _atom_site_fract_y
 _atom_site_fract_z
 _atom_site_occupancy
  Mg  Mg0  1  0.50000000  0.50000000  0.50000000  1
  Mg  Mg1  1  0.00000000  0.50000000  0.00000000  1
  H  H2  1  0.22692200  0.77160700  0.94411200  1
  H  H3  1  0.72692200  0.22839300  0.55588800  1
  H  H4  1  0.77307800  0.22839300  0.05588800  1
  H  H5  1  0.27307800  0.77160700  0.44411200  1
  H  H6  1  0.11790500  0.76359500  0.77778700  1
  H  H7  1  0.61790500  0.23640500  0.72221300  1
  H  H8  1  0.99880500  0.65128600  0.24357700  1
  H  H9  1  0.49880500  0.34871400  0.25642300  1
  H  H10  1  0.00119500  0.34871400  0.75642300  1
  H  H11  1  0.50119500  0.65128600  0.74357700  1
  H  H12  1  0.11812300  0.48972900  0.31370200  1
  H  H13  1  0.61812300  0.51027100  0.18629800  1
  H  H14  1  0.88187700  0.51027100  0.68629800  1
  H  H15  1  0.38187700  0.48972900  0.81370200  1
  H  H16  1  0.88209500  0.23640500  0.22221300  1
  H  H17  1  0.38209500  0.76359500  0.27778700  1
  I  I18  1  0.32258200  0.16337100  0.03192300  1
  I  I19  1  0.82258200  0.83662900  0.46807700  1
  I  I20  1  0.67741800  0.83662900  0.96807700  1
  I  I21  1  0.17741800  0.16337100  0.53192300  1
  O  O22  1  0.72252800  0.61877000  0.02091600  1
  O  O23  1  0.77747200  0.61877000  0.52091600  1
  O  O24  1  0.39345000  0.73187900  0.39458100  1
  O  O25  1  0.89345000  0.26812100  0.10541900  1
  O  O26  1  0.60655000  0.26812100  0.60541900  1
  O  O27  1  0.10655000  0.73187900  0.89458100  1
  O  O28  1  0.42765800  0.55939700  0.71391400  1
  O  O29  1  0.92765800  0.44060300  0.78608600  1
  O  O30  1  0.57234200  0.44060300  0.28608600  1
  O  O31  1  0.07234200  0.55939700  0.21391400  1
  O  O32  1  0.38614900  0.15422800  0.24135000  1
  O  O33  1  0.88614900  0.84577200  0.25865000  1
  O  O34  1  0.61385100  0.84577200  0.75865000  1
  O  O35  1  0.11385100  0.15422800  0.74135000  1
  O  O36  1  0.42568000  0.83772700  0.05619100  1
  O  O37  1  0.92568000  0.16227300  0.44380900  1
  O  O38  1  0.57432000  0.16227300  0.94380900  1
  O  O39  1  0.07432000  0.83772700  0.55619100  1
  O  O40  1  0.27747200  0.38123000  0.97908400  1
  O  O41  1  0.22252800  0.38123000  0.47908400  1
