# generated using pymatgen
data_KHCN2
_symmetry_space_group_name_H-M   'P 1'
_cell_length_a   7.19562100
_cell_length_b   9.13555400
_cell_length_c   9.17149600
_cell_angle_alpha   90.00000000
_cell_angle_beta   90.00000000
_cell_angle_gamma   90.00000000
_symmetry_Int_Tables_number   1
_chemical_formula_structural   KHCN2
_chemical_formula_sum   'K8 H8 C8 N16'
_cell_volume   602.89731623
_cell_formula_units_Z   8
loop_
 _symmetry_equiv_pos_site_id
 _symmetry_equiv_pos_as_xyz
  1  'x, y, z'
loop_
 _atom_site_type_symbol
 _atom_site_label
 _atom_site_symmetry_multiplicity
 _atom_site_fract_x
 _atom_site_fract_y
 _atom_site_fract_z
 _atom_site_occupancy
  K  K0  1  0.74067900  0.10388800  0.51105700  1
  K  K1  1  0.24067900  0.39611200  0.48894300  1
  K  K2  1  0.25932100  0.60388800  0.98894300  1
  K  K3  1  0.75932100  0.89611200  0.01105700  1
  K  K4  1  0.51535500  0.25098000  0.14483200  1
  K  K5  1  0.01535500  0.24902000  0.85516800  1
  K  K6  1  0.48464500  0.75098000  0.35516800  1
  K  K7  1  0.98464500  0.74902000  0.64483200  1
  H  H8  1  0.07155600  0.55541200  0.25687600  1
  H  H9  1  0.57155600  0.94458800  0.74312400  1
  H  H10  1  0.92844400  0.05541200  0.24312400  1
  H  H11  1  0.42844400  0.44458800  0.75687600  1
  H  H12  1  0.82604500  0.46843100  0.67761900  1
  H  H13  1  0.32604500  0.03156900  0.32238100  1
  H  H14  1  0.17395500  0.96843100  0.82238100  1
  H  H15  1  0.67395500  0.53156900  0.17761900  1
  C  C16  1  0.77493000  0.55628900  0.98099200  1
  C  C17  1  0.27493000  0.94371100  0.01900800  1
  C  C18  1  0.22507000  0.05628900  0.51900800  1
  C  C19  1  0.72507000  0.44371100  0.48099200  1
  C  C20  1  0.52261600  0.25055500  0.80859700  1
  C  C21  1  0.02261600  0.24944500  0.19140300  1
  C  C22  1  0.47738400  0.75055500  0.69140300  1
  C  C23  1  0.97738400  0.74944500  0.30859700  1
  N  N24  1  0.64205200  0.56603300  0.07342100  1
  N  N25  1  0.14205200  0.93396700  0.92657900  1
  N  N26  1  0.35794800  0.06603300  0.42657900  1
  N  N27  1  0.85794800  0.43396700  0.57342100  1
  N  N28  1  0.88940500  0.55477800  0.88543200  1
  N  N29  1  0.38940500  0.94522200  0.11456800  1
  N  N30  1  0.11059500  0.05477800  0.61456800  1
  N  N31  1  0.61059500  0.44522200  0.38543200  1
  N  N32  1  0.38951100  0.34221400  0.79307200  1
  N  N33  1  0.88951100  0.15778600  0.20692800  1
  N  N34  1  0.61048900  0.84221400  0.70692800  1
  N  N35  1  0.11048900  0.65778600  0.29307200  1
  N  N36  1  0.63566800  0.15576900  0.82978500  1
  N  N37  1  0.13566800  0.34423100  0.17021500  1
  N  N38  1  0.36433200  0.65576900  0.67021500  1
  N  N39  1  0.86433200  0.84423100  0.32978500  1
