# generated using pymatgen
data_Sr2Al3Si3HO13
_symmetry_space_group_name_H-M   'P 1'
_cell_length_a   5.66788800
_cell_length_b   10.36862300
_cell_length_c   16.53873800
_cell_angle_alpha   90.00000000
_cell_angle_beta   90.00000000
_cell_angle_gamma   90.00000000
_symmetry_Int_Tables_number   1
_chemical_formula_structural   Sr2Al3Si3HO13
_chemical_formula_sum   'Sr8 Al12 Si12 H4 O52'
_cell_volume   971.95176129
_cell_formula_units_Z   4
loop_
 _symmetry_equiv_pos_site_id
 _symmetry_equiv_pos_as_xyz
  1  'x, y, z'
loop_
 _atom_site_type_symbol
 _atom_site_label
 _atom_site_symmetry_multiplicity
 _atom_site_fract_x
 _atom_site_fract_y
 _atom_site_fract_z
 _atom_site_occupancy
  Sr  Sr0  1  0.25000000  0.38752600  0.95694900  1
  Sr  Sr1  1  0.75000000  0.61247400  0.04305100  1
  Sr  Sr2  1  0.75000000  0.88752600  0.54305100  1
  Sr  Sr3  1  0.25000000  0.11247400  0.45694900  1
  Sr  Sr4  1  0.25000000  0.05950800  0.86851500  1
  Sr  Sr5  1  0.75000000  0.94049200  0.13148500  1
  Sr  Sr6  1  0.75000000  0.55950800  0.63148500  1
  Sr  Sr7  1  0.25000000  0.44049200  0.36851500  1
  Al  Al8  1  0.49563100  0.68877600  0.24668900  1
  Al  Al9  1  0.99563100  0.18877600  0.25331100  1
  Al  Al10  1  0.49563100  0.81122400  0.74668900  1
  Al  Al11  1  0.00436900  0.68877600  0.24668900  1
  Al  Al12  1  0.50436900  0.31122400  0.75331100  1
  Al  Al13  1  0.00436900  0.81122400  0.74668900  1
  Al  Al14  1  0.50436900  0.18877600  0.25331100  1
  Al  Al15  1  0.99563100  0.31122400  0.75331100  1
  Al  Al16  1  0.75000000  0.29681200  0.11011300  1
  Al  Al17  1  0.25000000  0.70318800  0.88988700  1
  Al  Al18  1  0.25000000  0.79681200  0.38988700  1
  Al  Al19  1  0.75000000  0.20318800  0.61011300  1
  Si  Si20  1  0.25000000  0.07123500  0.66323200  1
  Si  Si21  1  0.75000000  0.89417700  0.91279100  1
  Si  Si22  1  0.75000000  0.60582300  0.41279100  1
  Si  Si23  1  0.25000000  0.39417700  0.58720900  1
  Si  Si24  1  0.25000000  0.10582300  0.08720900  1
  Si  Si25  1  0.75000000  0.28404200  0.41251700  1
  Si  Si26  1  0.25000000  0.71595800  0.58748300  1
  Si  Si27  1  0.25000000  0.78404200  0.08748300  1
  Si  Si28  1  0.75000000  0.21595800  0.91251700  1
  Si  Si29  1  0.25000000  0.42876500  0.16323200  1
  Si  Si30  1  0.75000000  0.92876500  0.33676800  1
  Si  Si31  1  0.75000000  0.57123500  0.83676800  1
  H  H32  1  0.25000000  0.51719000  0.77140100  1
  H  H33  1  0.75000000  0.48281000  0.22859900  1
  H  H34  1  0.75000000  0.01719000  0.72859900  1
  H  H35  1  0.25000000  0.98281000  0.27140100  1
  O  O36  1  0.25000000  0.31029200  0.23216900  1
  O  O37  1  0.75000000  0.57797200  0.22777300  1
  O  O38  1  0.75000000  0.92202800  0.72777300  1
  O  O39  1  0.25000000  0.07797200  0.27222700  1
  O  O40  1  0.75000000  0.05554300  0.91385200  1
  O  O41  1  0.25000000  0.94445700  0.08614800  1
  O  O42  1  0.25000000  0.55554300  0.58614800  1
  O  O43  1  0.75000000  0.44445700  0.41385200  1
  O  O44  1  0.75000000  0.21714100  0.50092000  1
  O  O45  1  0.25000000  0.78285900  0.49908000  1
  O  O46  1  0.25000000  0.71714100  0.99908000  1
  O  O47  1  0.75000000  0.28285900  0.00092000  1
  O  O48  1  0.25000000  0.34029900  0.49761600  1
  O  O49  1  0.75000000  0.65970100  0.50238400  1
  O  O50  1  0.75000000  0.84029900  0.00238400  1
  O  O51  1  0.25000000  0.15970100  0.99761600  1
  O  O52  1  0.75000000  0.44190300  0.77518200  1
  O  O53  1  0.48545900  0.74074600  0.13804300  1
  O  O54  1  0.25000000  0.94190300  0.72481800  1
  O  O55  1  0.75000000  0.05809700  0.27518200  1
  O  O56  1  0.25000000  0.18970800  0.73216900  1
  O  O57  1  0.75000000  0.81029200  0.26783100  1
  O  O58  1  0.75000000  0.68970800  0.76783100  1
  O  O59  1  0.25000000  0.42202800  0.77222700  1
  O  O60  1  0.75000000  0.20422800  0.72178200  1
  O  O61  1  0.25000000  0.79577200  0.27821800  1
  O  O62  1  0.25000000  0.70422800  0.77821800  1
  O  O63  1  0.75000000  0.29577200  0.22178200  1
  O  O64  1  0.00277700  0.14739100  0.13574100  1
  O  O65  1  0.50277700  0.85260900  0.86425900  1
  O  O66  1  0.99722300  0.64739100  0.36425900  1
  O  O67  1  0.49722300  0.35260900  0.63574100  1
  O  O68  1  0.99722300  0.85260900  0.86425900  1
  O  O69  1  0.49722300  0.14739100  0.13574100  1
  O  O70  1  0.00277700  0.35260900  0.63574100  1
  O  O71  1  0.50277700  0.64739100  0.36425900  1
  O  O72  1  0.01396800  0.42061600  0.10515500  1
  O  O73  1  0.51396800  0.57938400  0.89484500  1
  O  O74  1  0.98603200  0.92061600  0.39484500  1
  O  O75  1  0.48603200  0.07938400  0.60515500  1
  O  O76  1  0.98603200  0.57938400  0.89484500  1
  O  O77  1  0.48603200  0.42061600  0.10515500  1
  O  O78  1  0.01396800  0.07938400  0.60515500  1
  O  O79  1  0.51396800  0.92061600  0.39484500  1
  O  O80  1  0.98545900  0.24074600  0.36195700  1
  O  O81  1  0.48545900  0.75925400  0.63804300  1
  O  O82  1  0.01454100  0.74074600  0.13804300  1
  O  O83  1  0.51454100  0.25925400  0.86195700  1
  O  O84  1  0.01454100  0.75925400  0.63804300  1
  O  O85  1  0.51454100  0.24074600  0.36195700  1
  O  O86  1  0.98545900  0.25925400  0.86195700  1
  O  O87  1  0.25000000  0.55809700  0.22481800  1
