# generated using pymatgen
data_DyH4I3O11
_symmetry_space_group_name_H-M   'P 1'
_cell_length_a   7.13319200
_cell_length_b   7.56239079
_cell_length_c   10.84996966
_cell_angle_alpha   94.08655420
_cell_angle_beta   106.02004724
_cell_angle_gamma   108.29103346
_symmetry_Int_Tables_number   1
_chemical_formula_structural   DyH4I3O11
_chemical_formula_sum   'Dy2 H8 I6 O22'
_cell_volume   526.08395026
_cell_formula_units_Z   2
loop_
 _symmetry_equiv_pos_site_id
 _symmetry_equiv_pos_as_xyz
  1  'x, y, z'
loop_
 _atom_site_type_symbol
 _atom_site_label
 _atom_site_symmetry_multiplicity
 _atom_site_fract_x
 _atom_site_fract_y
 _atom_site_fract_z
 _atom_site_occupancy
  Dy  Dy0  1  0.90194700  0.58258500  0.21256200  1
  Dy  Dy1  1  0.09805300  0.41741500  0.78743800  1
  H  H2  1  0.86489900  0.74340500  0.61133900  1
  H  H3  1  0.13510100  0.25659500  0.38866100  1
  H  H4  1  0.80860700  0.92792200  0.62325300  1
  H  H5  1  0.19139300  0.07207800  0.37674700  1
  H  H6  1  0.76048200  0.89489800  0.13944600  1
  H  H7  1  0.26969800  0.09367300  0.71986400  1
  H  H8  1  0.73030200  0.90632700  0.28013600  1
  H  H9  1  0.23951800  0.10510200  0.86055400  1
  I  I10  1  0.73713300  0.27157800  0.44819400  1
  I  I11  1  0.26286700  0.72842200  0.55180600  1
  I  I12  1  0.70978700  0.63719500  0.83702600  1
  I  I13  1  0.29021300  0.36280500  0.16297400  1
  I  I14  1  0.69660600  0.15895800  0.93783700  1
  I  I15  1  0.30339400  0.84104200  0.06216300  1
  O  O16  1  0.24599800  0.20936000  0.37917300  1
  O  O17  1  0.86233700  0.28103400  0.10350700  1
  O  O18  1  0.09526300  0.83275800  0.13118100  1
  O  O19  1  0.90473700  0.16724200  0.86881900  1
  O  O20  1  0.35521800  0.08368600  0.02678000  1
  O  O21  1  0.64478200  0.91631400  0.97322000  1
  O  O22  1  0.13766300  0.71896600  0.89649300  1
  O  O23  1  0.71163500  0.53439200  0.98611400  1
  O  O24  1  0.24062700  0.55488700  0.24758700  1
  O  O25  1  0.75937300  0.44511300  0.75241300  1
  O  O26  1  0.57374000  0.43749400  0.24437100  1
  O  O27  1  0.42626000  0.56250600  0.75562900  1
  O  O28  1  0.05787900  0.62100500  0.62572000  1
  O  O29  1  0.94212100  0.37899500  0.37428000  1
  O  O30  1  0.09902000  0.79039500  0.41045900  1
  O  O31  1  0.90098000  0.20960500  0.58954100  1
  O  O32  1  0.39263900  0.96034200  0.65263900  1
  O  O33  1  0.60736100  0.03965800  0.34736100  1
  O  O34  1  0.23114100  0.16644300  0.78271000  1
  O  O35  1  0.76885900  0.83355700  0.21729000  1
  O  O36  1  0.28836500  0.46560800  0.01388600  1
  O  O37  1  0.75400200  0.79064000  0.62082700  1
