# generated using pymatgen
data_HfAl
_symmetry_space_group_name_H-M   'P 1'
_cell_length_a   5.68101292
_cell_length_b   5.68101292
_cell_length_c   4.30016400
_cell_angle_alpha   90.00000000
_cell_angle_beta   90.00000000
_cell_angle_gamma   146.73144629
_symmetry_Int_Tables_number   1
_chemical_formula_structural   HfAl
_chemical_formula_sum   'Hf2 Al2'
_cell_volume   76.13141177
_cell_formula_units_Z   2
loop_
 _symmetry_equiv_pos_site_id
 _symmetry_equiv_pos_as_xyz
  1  'x, y, z'
loop_
 _atom_site_type_symbol
 _atom_site_label
 _atom_site_symmetry_multiplicity
 _atom_site_fract_x
 _atom_site_fract_y
 _atom_site_fract_z
 _atom_site_occupancy
  Hf  Hf0  1  0.16350400  0.83649600  0.75000000  1
  Hf  Hf1  1  0.83649600  0.16350400  0.25000000  1
  Al  Al2  1  0.42980800  0.57019200  0.75000000  1
  Al  Al3  1  0.57019200  0.42980800  0.25000000  1
