# generated using pymatgen
data_TiO2
_symmetry_space_group_name_H-M   'P 1'
_cell_length_a   5.96681451
_cell_length_b   5.96681451
_cell_length_c   5.96681451
_cell_angle_alpha   60.00000000
_cell_angle_beta   60.00000000
_cell_angle_gamma   60.00000000
_symmetry_Int_Tables_number   1
_chemical_formula_structural   TiO2
_chemical_formula_sum   'Ti4 O8'
_cell_volume   150.21476165
_cell_formula_units_Z   4
loop_
 _symmetry_equiv_pos_site_id
 _symmetry_equiv_pos_as_xyz
  1  'x, y, z'
loop_
 _atom_site_type_symbol
 _atom_site_label
 _atom_site_symmetry_multiplicity
 _atom_site_fract_x
 _atom_site_fract_y
 _atom_site_fract_z
 _atom_site_occupancy
  Ti  Ti0  1  0.12500000  0.12500000  0.62500000  1
  Ti  Ti1  1  0.62500000  0.12500000  0.12500000  1
  Ti  Ti2  1  0.12500000  0.62500000  0.12500000  1
  Ti  Ti3  1  0.12500000  0.12500000  0.12500000  1
  O  O4  1  0.89079900  0.89079900  0.89079900  1
  O  O5  1  0.89079900  0.32760300  0.89079900  1
  O  O6  1  0.89079900  0.89079900  0.32760300  1
  O  O7  1  0.32760300  0.89079900  0.89079900  1
  O  O8  1  0.35920100  0.35920100  0.92239700  1
  O  O9  1  0.92239700  0.35920100  0.35920100  1
  O  O10  1  0.35920100  0.92239700  0.35920100  1
  O  O11  1  0.35920100  0.35920100  0.35920100  1
