# generated using pymatgen
data_LiCuO2
_symmetry_space_group_name_H-M   'P 1'
_cell_length_a   5.07180380
_cell_length_b   5.07180380
_cell_length_c   5.07180398
_cell_angle_alpha   33.74009130
_cell_angle_beta   33.74009130
_cell_angle_gamma   33.74008536
_symmetry_Int_Tables_number   1
_chemical_formula_structural   LiCuO2
_chemical_formula_sum   'Li1 Cu1 O2'
_cell_volume   35.86032209
_cell_formula_units_Z   1
loop_
 _symmetry_equiv_pos_site_id
 _symmetry_equiv_pos_as_xyz
  1  'x, y, z'
loop_
 _atom_site_type_symbol
 _atom_site_label
 _atom_site_symmetry_multiplicity
 _atom_site_fract_x
 _atom_site_fract_y
 _atom_site_fract_z
 _atom_site_occupancy
  Li  Li0  1  0.50000000  0.50000000  0.50000000  1
  Cu  Cu1  1  0.00000000  0.00000000  0.00000000  1
  O  O2  1  0.25637400  0.25637400  0.25637400  1
  O  O3  1  0.74362600  0.74362600  0.74362600  1
