# generated using pymatgen
data_CoH8(IO5)2
_symmetry_space_group_name_H-M   'P 1'
_cell_length_a   6.60543200
_cell_length_b   8.46011700
_cell_length_c   8.52889094
_cell_angle_alpha   80.52097142
_cell_angle_beta   90.00000000
_cell_angle_gamma   90.00000000
_symmetry_Int_Tables_number   1
_chemical_formula_structural   CoH8(IO5)2
_chemical_formula_sum   'Co2 H16 I4 O20'
_cell_volume   470.10992495
_cell_formula_units_Z   2
loop_
 _symmetry_equiv_pos_site_id
 _symmetry_equiv_pos_as_xyz
  1  'x, y, z'
loop_
 _atom_site_type_symbol
 _atom_site_label
 _atom_site_symmetry_multiplicity
 _atom_site_fract_x
 _atom_site_fract_y
 _atom_site_fract_z
 _atom_site_occupancy
  Co  Co0  1  0.00000000  0.50000000  0.00000000  1
  Co  Co1  1  0.50000000  0.50000000  0.50000000  1
  H  H2  1  0.21733500  0.77663000  0.94384500  1
  H  H3  1  0.71733500  0.22337000  0.55615500  1
  H  H4  1  0.78266500  0.22337000  0.05615500  1
  H  H5  1  0.28266500  0.77663000  0.44384500  1
  H  H6  1  0.10955200  0.76748100  0.77618300  1
  H  H7  1  0.60955200  0.23251900  0.72381700  1
  H  H8  1  0.00440500  0.65585800  0.23900700  1
  H  H9  1  0.50440500  0.34414200  0.26099300  1
  H  H10  1  0.99559500  0.34414200  0.76099300  1
  H  H11  1  0.49559500  0.65585800  0.73900700  1
  H  H12  1  0.11926900  0.49050000  0.30873300  1
  H  H13  1  0.61926900  0.50950000  0.19126700  1
  H  H14  1  0.88073100  0.50950000  0.69126700  1
  H  H15  1  0.38073100  0.49050000  0.80873300  1
  H  H16  1  0.89044800  0.23251900  0.22381700  1
  H  H17  1  0.39044800  0.76748100  0.27618300  1
  I  I18  1  0.17832000  0.16716300  0.53016000  1
  I  I19  1  0.67832000  0.83283700  0.96984000  1
  I  I20  1  0.82168000  0.83283700  0.46984000  1
  I  I21  1  0.32168000  0.16716300  0.03016000  1
  O  O22  1  0.78284100  0.61460300  0.52499500  1
  O  O23  1  0.71715900  0.61460300  0.02499500  1
  O  O24  1  0.40753500  0.74186300  0.39316200  1
  O  O25  1  0.90753500  0.25813700  0.10683800  1
  O  O26  1  0.59246500  0.25813700  0.60683800  1
  O  O27  1  0.21715900  0.38539700  0.47500500  1
  O  O28  1  0.41886800  0.56429800  0.70943300  1
  O  O29  1  0.91886800  0.43570200  0.79056700  1
  O  O30  1  0.58113200  0.43570200  0.29056700  1
  O  O31  1  0.08113200  0.56429800  0.20943300  1
  O  O32  1  0.38551100  0.16058400  0.23980500  1
  O  O33  1  0.88551100  0.83941600  0.26019500  1
  O  O34  1  0.61448900  0.83941600  0.76019500  1
  O  O35  1  0.11448900  0.16058400  0.73980500  1
  O  O36  1  0.42240200  0.83829600  0.05639400  1
  O  O37  1  0.92240200  0.16170400  0.44360600  1
  O  O38  1  0.57759800  0.16170400  0.94360600  1
  O  O39  1  0.07759800  0.83829600  0.55639400  1
  O  O40  1  0.28284100  0.38539700  0.97500500  1
  O  O41  1  0.09246500  0.74186300  0.89316200  1
