# generated using pymatgen
data_P2H8O9
_symmetry_space_group_name_H-M   'P 1'
_cell_length_a   13.05573100
_cell_length_b   7.53541300
_cell_length_c   7.98883634
_cell_angle_alpha   70.33076441
_cell_angle_beta   90.00000000
_cell_angle_gamma   90.00000000
_symmetry_Int_Tables_number   1
_chemical_formula_structural   P2H8O9
_chemical_formula_sum   'P8 H32 O36'
_cell_volume   740.08557326
_cell_formula_units_Z   4
loop_
 _symmetry_equiv_pos_site_id
 _symmetry_equiv_pos_as_xyz
  1  'x, y, z'
loop_
 _atom_site_type_symbol
 _atom_site_label
 _atom_site_symmetry_multiplicity
 _atom_site_fract_x
 _atom_site_fract_y
 _atom_site_fract_z
 _atom_site_occupancy
  P  P0  1  0.36423200  0.36007300  0.07921700  1
  P  P1  1  0.86423200  0.63992700  0.42078300  1
  P  P2  1  0.63576800  0.63992700  0.92078300  1
  P  P3  1  0.13576800  0.36007300  0.57921700  1
  P  P4  1  0.10280500  0.74565100  0.94719600  1
  P  P5  1  0.60280500  0.25434900  0.55280400  1
  P  P6  1  0.89719500  0.25434900  0.05280400  1
  P  P7  1  0.39719500  0.74565100  0.44719600  1
  H  H8  1  0.40792700  0.87102200  0.91015100  1
  H  H9  1  0.90792700  0.12897800  0.58984900  1
  H  H10  1  0.59207300  0.12897800  0.08984900  1
  H  H11  1  0.09207300  0.87102200  0.41015100  1
  H  H12  1  0.30033800  0.39916700  0.58335900  1
  H  H13  1  0.80033800  0.60083300  0.91664100  1
  H  H14  1  0.69966200  0.60083300  0.41664100  1
  H  H15  1  0.19966200  0.39916700  0.08335900  1
  H  H16  1  0.37119100  0.55211600  0.79269300  1
  H  H17  1  0.87119100  0.44788400  0.70730700  1
  H  H18  1  0.62880900  0.44788400  0.20730700  1
  H  H19  1  0.12880900  0.55211600  0.29269300  1
  H  H20  1  0.39805600  0.12158100  0.97688500  1
  H  H21  1  0.89805600  0.87841900  0.52311500  1
  H  H22  1  0.60194400  0.87841900  0.02311500  1
  H  H23  1  0.10194400  0.12158100  0.47688500  1
  H  H24  1  0.11937200  0.04448500  0.24150700  1
  H  H25  1  0.61937200  0.95551500  0.25849300  1
  H  H26  1  0.88062800  0.95551500  0.75849300  1
  H  H27  1  0.38062800  0.04448500  0.74150700  1
  H  H28  1  0.26100100  0.93342900  0.41440300  1
  H  H29  1  0.76100100  0.06657100  0.08559700  1
  H  H30  1  0.73899900  0.06657100  0.58559700  1
  H  H31  1  0.23899900  0.93342900  0.91440300  1
  H  H32  1  0.39108900  0.59353800  0.25369000  1
  H  H33  1  0.89108900  0.40646200  0.24631000  1
  H  H34  1  0.60891100  0.40646200  0.74631000  1
  H  H35  1  0.10891100  0.59353800  0.75369000  1
  H  H36  1  0.45239400  0.26634900  0.41980600  1
  H  H37  1  0.95239400  0.73365100  0.08019400  1
  H  H38  1  0.54760600  0.73365100  0.58019400  1
  H  H39  1  0.04760600  0.26634900  0.91980600  1
  O  O40  1  0.75033700  0.70683100  0.91249300  1
  O  O41  1  0.48805300  0.19860800  0.53857400  1
  O  O42  1  0.01194700  0.19860800  0.03857400  1
  O  O43  1  0.51194700  0.80139200  0.46142600  1
  O  O44  1  0.09892400  0.39474000  0.74503000  1
  O  O45  1  0.59892400  0.60526000  0.75497000  1
  O  O46  1  0.13597700  0.98336100  0.36809600  1
  O  O47  1  0.40107600  0.39474000  0.24503000  1
  O  O48  1  0.07116400  0.19891800  0.54714800  1
  O  O49  1  0.57116400  0.80108200  0.95285200  1
  O  O50  1  0.92883600  0.80108200  0.45285200  1
  O  O51  1  0.42883600  0.19891800  0.04714700  1
  O  O52  1  0.12413900  0.55122100  0.42185400  1
  O  O53  1  0.62413900  0.44877900  0.07814600  1
  O  O54  1  0.87586100  0.44877900  0.57814600  1
  O  O55  1  0.37586100  0.55122100  0.92185400  1
  O  O56  1  0.25033700  0.29316900  0.58750700  1
  O  O57  1  0.98805300  0.80139200  0.96142600  1
  O  O58  1  0.74966300  0.70683100  0.41249300  1
  O  O59  1  0.24966300  0.29316900  0.08750700  1
  O  O60  1  0.11944700  0.72689900  0.76023100  1
  O  O61  1  0.61944700  0.27310100  0.73976900  1
  O  O62  1  0.88055300  0.27310100  0.23976900  1
  O  O63  1  0.38055300  0.72689900  0.26023100  1
  O  O64  1  0.16419300  0.92444700  0.94705600  1
  O  O65  1  0.66419300  0.07555300  0.55294400  1
  O  O66  1  0.83580700  0.07555300  0.05294400  1
  O  O67  1  0.33580700  0.92444700  0.44705600  1
  O  O68  1  0.13198600  0.56639300  0.09748400  1
  O  O69  1  0.63198600  0.43360700  0.40251600  1
  O  O70  1  0.86801400  0.43360700  0.90251600  1
  O  O71  1  0.36801400  0.56639300  0.59748400  1
  O  O72  1  0.36402300  0.98336100  0.86809600  1
  O  O73  1  0.86402300  0.01663900  0.63190400  1
  O  O74  1  0.63597700  0.01663900  0.13190400  1
  O  O75  1  0.90107600  0.60526000  0.25497000  1
