# generated using pymatgen
data_B9H8S
_symmetry_space_group_name_H-M   'P 1'
_cell_length_a   9.94223800
_cell_length_b   6.80977400
_cell_length_c   13.62562369
_cell_angle_alpha   65.80922917
_cell_angle_beta   90.00000000
_cell_angle_gamma   90.00000000
_symmetry_Int_Tables_number   1
_chemical_formula_structural   B9H8S
_chemical_formula_sum   'B36 H32 S4'
_cell_volume   841.50501993
_cell_formula_units_Z   4
loop_
 _symmetry_equiv_pos_site_id
 _symmetry_equiv_pos_as_xyz
  1  'x, y, z'
loop_
 _atom_site_type_symbol
 _atom_site_label
 _atom_site_symmetry_multiplicity
 _atom_site_fract_x
 _atom_site_fract_y
 _atom_site_fract_z
 _atom_site_occupancy
  B  B0  1  0.68977200  0.66253300  0.23554600  1
  B  B1  1  0.18977200  0.33746700  0.26445400  1
  B  B2  1  0.31022800  0.33746700  0.76445400  1
  B  B3  1  0.81022800  0.66253300  0.73554600  1
  B  B4  1  0.64028300  0.91779400  0.15229700  1
  B  B5  1  0.14028300  0.08220600  0.34770300  1
  B  B6  1  0.35971700  0.08220600  0.84770300  1
  B  B7  1  0.85971700  0.91779400  0.65229700  1
  B  B8  1  0.81481600  0.82208700  0.15587300  1
  B  B9  1  0.31481600  0.17791300  0.34412700  1
  B  B10  1  0.18518400  0.17791300  0.84412700  1
  B  B11  1  0.68518400  0.82208700  0.65587300  1
  B  B12  1  0.75194900  0.57991700  0.14146400  1
  B  B13  1  0.25194900  0.42008300  0.35853600  1
  B  B14  1  0.24805100  0.42008300  0.85853600  1
  B  B15  1  0.74805100  0.57991700  0.64146400  1
  B  B16  1  0.57743100  0.67597400  0.13777800  1
  B  B17  1  0.07743100  0.32402600  0.36222200  1
  B  B18  1  0.42256900  0.32402600  0.86222200  1
  B  B19  1  0.92256900  0.67597400  0.63777800  1
  B  B20  1  0.75038600  0.04000500  0.04126700  1
  B  B21  1  0.25038600  0.95999500  0.45873300  1
  B  B22  1  0.24961400  0.95999500  0.95873300  1
  B  B23  1  0.74961400  0.04000500  0.54126700  1
  B  B24  1  0.83206100  0.79174200  0.03308900  1
  B  B25  1  0.33206100  0.20825800  0.46691100  1
  B  B26  1  0.16793900  0.20825800  0.96691100  1
  B  B27  1  0.66793900  0.79174200  0.53308900  1
  B  B28  1  0.65802100  0.68448700  0.01997700  1
  B  B29  1  0.15802100  0.31551300  0.48002300  1
  B  B30  1  0.34197900  0.31551300  0.98002300  1
  B  B31  1  0.84197900  0.68448700  0.51997700  1
  B  B32  1  0.57259700  0.93448200  0.02745800  1
  B  B33  1  0.07259700  0.06551800  0.47254200  1
  B  B34  1  0.42740300  0.06551800  0.97254200  1
  B  B35  1  0.92740300  0.93448200  0.52745800  1
  H  H36  1  0.68277600  0.56985800  0.33072500  1
  H  H37  1  0.18277600  0.43014200  0.16927500  1
  H  H38  1  0.31722400  0.43014200  0.66927500  1
  H  H39  1  0.81722400  0.56985800  0.83072500  1
  H  H40  1  0.59057500  0.03035800  0.19059100  1
  H  H41  1  0.09057500  0.96964200  0.30940900  1
  H  H42  1  0.40942500  0.96964200  0.80940900  1
  H  H43  1  0.90942500  0.03035800  0.69059100  1
  H  H44  1  0.91444900  0.85379300  0.19631000  1
  H  H45  1  0.41444900  0.14620700  0.30369000  1
  H  H46  1  0.08555100  0.14620700  0.80369000  1
  H  H47  1  0.58555100  0.85379300  0.69631000  1
  H  H48  1  0.79767000  0.40304400  0.16906000  1
  H  H49  1  0.29767000  0.59695600  0.33094000  1
  H  H50  1  0.20233000  0.59695600  0.83094000  1
  H  H51  1  0.70233000  0.40304400  0.66906000  1
  H  H52  1  0.52637700  0.41968900  0.83634900  1
  H  H53  1  0.02637700  0.58031100  0.66365100  1
  H  H54  1  0.47362300  0.58031100  0.16365100  1
  H  H55  1  0.97362300  0.41968900  0.33634900  1
  H  H56  1  0.79025300  0.21988300  0.01156000  1
  H  H57  1  0.29025300  0.78011700  0.48844000  1
  H  H58  1  0.20974700  0.78011700  0.98844000  1
  H  H59  1  0.70974700  0.21988300  0.51156000  1
  H  H60  1  0.93713200  0.77293100  0.99596100  1
  H  H61  1  0.43713200  0.22706900  0.50403900  1
  H  H62  1  0.06286800  0.22706900  0.00403900  1
  H  H63  1  0.56286800  0.77293100  0.49596100  1
  H  H64  1  0.62389700  0.57961300  0.97283200  1
  H  H65  1  0.12389700  0.42038700  0.52716800  1
  H  H66  1  0.37610300  0.42038700  0.02716800  1
  H  H67  1  0.87610300  0.57961300  0.47283200  1
  S  S68  1  0.71079400  0.96917600  0.92131400  1
  S  S69  1  0.21079400  0.03082400  0.57868600  1
  S  S70  1  0.28920600  0.03082400  0.07868600  1
  S  S71  1  0.78920600  0.96917600  0.42131400  1
