# generated using pymatgen
data_SbXeF9
_symmetry_space_group_name_H-M   'P 1'
_cell_length_a   15.85542400
_cell_length_b   5.56440800
_cell_length_c   9.48985375
_cell_angle_alpha   68.00278559
_cell_angle_beta   90.00000000
_cell_angle_gamma   90.00000000
_symmetry_Int_Tables_number   1
_chemical_formula_structural   SbXeF9
_chemical_formula_sum   'Sb4 Xe4 F36'
_cell_volume   776.30205638
_cell_formula_units_Z   4
loop_
 _symmetry_equiv_pos_site_id
 _symmetry_equiv_pos_as_xyz
  1  'x, y, z'
loop_
 _atom_site_type_symbol
 _atom_site_label
 _atom_site_symmetry_multiplicity
 _atom_site_fract_x
 _atom_site_fract_y
 _atom_site_fract_z
 _atom_site_occupancy
  Sb  Sb0  1  0.58209400  0.45742900  0.77795600  1
  Sb  Sb1  1  0.08209400  0.54257100  0.72204400  1
  Sb  Sb2  1  0.41790600  0.54257100  0.22204400  1
  Sb  Sb3  1  0.91790600  0.45742900  0.27795600  1
  Xe  Xe4  1  0.36331800  0.88999200  0.71942700  1
  Xe  Xe5  1  0.86331800  0.11000800  0.78057300  1
  Xe  Xe6  1  0.63668200  0.11000800  0.28057300  1
  Xe  Xe7  1  0.13668200  0.88999200  0.21942700  1
  F  F8  1  0.63514500  0.70050400  0.84517500  1
  F  F9  1  0.13514500  0.29949600  0.65482500  1
  F  F10  1  0.36485500  0.29949600  0.15482500  1
  F  F11  1  0.86485500  0.70050400  0.34517500  1
  F  F12  1  0.52071700  0.20689400  0.72676800  1
  F  F13  1  0.02071700  0.79310600  0.77323200  1
  F  F14  1  0.47928300  0.79310600  0.27323200  1
  F  F15  1  0.97928300  0.20689400  0.22676800  1
  F  F16  1  0.02890300  0.56763500  0.33591100  1
  F  F17  1  0.52890300  0.43236500  0.16408900  1
  F  F18  1  0.97109700  0.43236500  0.66408900  1
  F  F19  1  0.47109700  0.56763500  0.83591100  1
  F  F20  1  0.12980400  0.68318700  0.08681400  1
  F  F21  1  0.62980400  0.31681300  0.41318600  1
  F  F22  1  0.87019600  0.31681300  0.91318600  1
  F  F23  1  0.37019600  0.68318700  0.58681400  1
  F  F24  1  0.22109600  0.07533800  0.06473400  1
  F  F25  1  0.72109600  0.92466200  0.43526600  1
  F  F26  1  0.77890400  0.92466200  0.93526600  1
  F  F27  1  0.27890400  0.07533800  0.56473400  1
  F  F28  1  0.17227800  0.15953100  0.30062700  1
  F  F29  1  0.67227800  0.84046900  0.19937300  1
  F  F30  1  0.82772200  0.84046900  0.69937300  1
  F  F31  1  0.32772200  0.15953100  0.80062700  1
  F  F32  1  0.93650700  0.71449500  0.07994300  1
  F  F33  1  0.43650700  0.28550500  0.42005700  1
  F  F34  1  0.06349300  0.28550500  0.92005700  1
  F  F35  1  0.56349300  0.71449500  0.57994300  1
  F  F36  1  0.81309600  0.35381800  0.21951200  1
  F  F37  1  0.31309600  0.64618200  0.28048800  1
  F  F38  1  0.18690400  0.64618200  0.78048800  1
  F  F39  1  0.68690400  0.35381800  0.71951200  1
  F  F40  1  0.90985100  0.20383400  0.48306200  1
  F  F41  1  0.40985100  0.79616600  0.01693800  1
  F  F42  1  0.09014900  0.79616600  0.51693800  1
  F  F43  1  0.59014900  0.20383400  0.98306200  1
