# generated using pymatgen
data_LiY(CuP)2
_symmetry_space_group_name_H-M   'P 1'
_cell_length_a   3.97950575
_cell_length_b   3.97950575
_cell_length_c   6.56860300
_cell_angle_alpha   90.00000000
_cell_angle_beta   90.00000000
_cell_angle_gamma   119.99999582
_symmetry_Int_Tables_number   1
_chemical_formula_structural   LiY(CuP)2
_chemical_formula_sum   'Li1 Y1 Cu2 P2'
_cell_volume   90.08696109
_cell_formula_units_Z   1
loop_
 _symmetry_equiv_pos_site_id
 _symmetry_equiv_pos_as_xyz
  1  'x, y, z'
loop_
 _atom_site_type_symbol
 _atom_site_label
 _atom_site_symmetry_multiplicity
 _atom_site_fract_x
 _atom_site_fract_y
 _atom_site_fract_z
 _atom_site_occupancy
  Li  Li0  1  0.00000000  0.00000000  0.50000000  1
  Y  Y1  1  0.00000000  0.00000000  0.00000000  1
  Cu  Cu2  1  0.66666700  0.33333300  0.33163800  1
  Cu  Cu3  1  0.33333300  0.66666700  0.66836200  1
  P  P4  1  0.66666700  0.33333300  0.73805500  1
  P  P5  1  0.33333300  0.66666700  0.26194500  1
