# generated using pymatgen
data_NaAsSe2
_symmetry_space_group_name_H-M   'P 1'
_cell_length_a   5.91685500
_cell_length_b   12.09054700
_cell_length_c   24.99213700
_cell_angle_alpha   90.00000000
_cell_angle_beta   90.00000000
_cell_angle_gamma   90.00000000
_symmetry_Int_Tables_number   1
_chemical_formula_structural   NaAsSe2
_chemical_formula_sum   'Na16 As16 Se32'
_cell_volume   1787.88783334
_cell_formula_units_Z   16
loop_
 _symmetry_equiv_pos_site_id
 _symmetry_equiv_pos_as_xyz
  1  'x, y, z'
loop_
 _atom_site_type_symbol
 _atom_site_label
 _atom_site_symmetry_multiplicity
 _atom_site_fract_x
 _atom_site_fract_y
 _atom_site_fract_z
 _atom_site_occupancy
  Na  Na0  1  0.70883100  0.12413600  0.25257500  1
  Na  Na1  1  0.23800100  0.37307700  0.50218500  1
  Na  Na2  1  0.76199900  0.12692300  0.00218500  1
  Na  Na3  1  0.26199900  0.87307700  0.49781500  1
  Na  Na4  1  0.26199900  0.37307700  0.00218500  1
  Na  Na5  1  0.76199900  0.62692300  0.49781500  1
  Na  Na6  1  0.23800100  0.87307700  0.99781500  1
  Na  Na7  1  0.73800100  0.12692300  0.50218500  1
  Na  Na8  1  0.70883100  0.62413600  0.24742500  1
  Na  Na9  1  0.20883100  0.37586400  0.25257500  1
  Na  Na10  1  0.79116900  0.12413600  0.75257500  1
  Na  Na11  1  0.29116900  0.87586400  0.74742500  1
  Na  Na12  1  0.29116900  0.37586400  0.75257500  1
  Na  Na13  1  0.79116900  0.62413600  0.74742500  1
  Na  Na14  1  0.20883100  0.87586400  0.24742500  1
  Na  Na15  1  0.73800100  0.62692300  0.99781500  1
  As  As16  1  0.28845800  0.64470700  0.38776300  1
  As  As17  1  0.71154200  0.85529300  0.88776300  1
  As  As18  1  0.21154200  0.14470700  0.61223700  1
  As  As19  1  0.21154200  0.64470700  0.88776300  1
  As  As20  1  0.71154200  0.35529300  0.61223700  1
  As  As21  1  0.28845800  0.14470700  0.11223700  1
  As  As22  1  0.78845800  0.85529300  0.38776300  1
  As  As23  1  0.76834100  0.35538300  0.86045300  1
  As  As24  1  0.26834100  0.64461700  0.63954700  1
  As  As25  1  0.73165900  0.85538300  0.13954700  1
  As  As26  1  0.23165900  0.14461700  0.36045300  1
  As  As27  1  0.23165900  0.64461700  0.13954700  1
  As  As28  1  0.73165900  0.35538300  0.36045300  1
  As  As29  1  0.26834100  0.14461700  0.86045300  1
  As  As30  1  0.78845800  0.35529300  0.11223700  1
  As  As31  1  0.76834100  0.85538300  0.63954700  1
  Se  Se32  1  0.20640000  0.84462000  0.37136300  1
  Se  Se33  1  0.26140700  0.12407100  0.01882000  1
  Se  Se34  1  0.73859300  0.37592900  0.51882000  1
  Se  Se35  1  0.23859300  0.62407100  0.98118000  1
  Se  Se36  1  0.23859300  0.12407100  0.51882000  1
  Se  Se37  1  0.73859300  0.87592900  0.98118000  1
  Se  Se38  1  0.26140700  0.62407100  0.48118000  1
  Se  Se39  1  0.76140700  0.37592900  0.01882000  1
  Se  Se40  1  0.70879500  0.87369500  0.23313800  1
  Se  Se41  1  0.20879500  0.12630500  0.26686200  1
  Se  Se42  1  0.79120500  0.37369500  0.76686200  1
  Se  Se43  1  0.29120500  0.62630500  0.73313800  1
  Se  Se44  1  0.29120500  0.12630500  0.76686200  1
  Se  Se45  1  0.79120500  0.87369500  0.73313800  1
  Se  Se46  1  0.20879500  0.62630500  0.23313800  1
  Se  Se47  1  0.70879500  0.37369500  0.26686200  1
  Se  Se48  1  0.70640000  0.15538000  0.12863700  1
  Se  Se49  1  0.79360000  0.65538000  0.87136300  1
  Se  Se50  1  0.29360000  0.34462000  0.62863700  1
  Se  Se51  1  0.29360000  0.84462000  0.87136300  1
  Se  Se52  1  0.79360000  0.15538000  0.62863700  1
  Se  Se53  1  0.20640000  0.34462000  0.12863700  1
  Se  Se54  1  0.70640000  0.65538000  0.37136300  1
  Se  Se55  1  0.64850800  0.15606500  0.37822800  1
  Se  Se56  1  0.14850800  0.84393500  0.12177200  1
  Se  Se57  1  0.85149200  0.65606500  0.62177200  1
  Se  Se58  1  0.35149200  0.34393500  0.87822800  1
  Se  Se59  1  0.35149200  0.84393500  0.62177200  1
  Se  Se60  1  0.85149200  0.15606500  0.87822800  1
  Se  Se61  1  0.14850800  0.34393500  0.37822800  1
  Se  Se62  1  0.64850800  0.65606500  0.12177200  1
  Se  Se63  1  0.76140700  0.87592900  0.48118000  1
