# generated using pymatgen
data_TeO2
_symmetry_space_group_name_H-M   'P 1'
_cell_length_a   4.96887500
_cell_length_b   4.96887500
_cell_length_c   7.62578400
_cell_angle_alpha   90.00000000
_cell_angle_beta   90.00000000
_cell_angle_gamma   90.00000000
_symmetry_Int_Tables_number   1
_chemical_formula_structural   TeO2
_chemical_formula_sum   'Te4 O8'
_cell_volume   188.27846233
_cell_formula_units_Z   4
loop_
 _symmetry_equiv_pos_site_id
 _symmetry_equiv_pos_as_xyz
  1  'x, y, z'
loop_
 _atom_site_type_symbol
 _atom_site_label
 _atom_site_symmetry_multiplicity
 _atom_site_fract_x
 _atom_site_fract_y
 _atom_site_fract_z
 _atom_site_occupancy
  Te  Te0  1  0.03155800  0.03155800  0.00000000  1
  Te  Te1  1  0.46844200  0.53155800  0.75000000  1
  Te  Te2  1  0.53155800  0.46844200  0.25000000  1
  Te  Te3  1  0.96844200  0.96844200  0.50000000  1
  O  O4  1  0.25477600  0.14535400  0.19051700  1
  O  O5  1  0.35464600  0.75477600  0.94051700  1
  O  O6  1  0.64535400  0.24522400  0.44051700  1
  O  O7  1  0.75477600  0.35464600  0.05948300  1
  O  O8  1  0.24522400  0.64535400  0.55948300  1
  O  O9  1  0.74522400  0.85464600  0.69051700  1
  O  O10  1  0.14535400  0.25477600  0.80948300  1
  O  O11  1  0.85464600  0.74522400  0.30948300  1
