# generated using pymatgen
data_Ba(PO3)2
_symmetry_space_group_name_H-M   'P 1'
_cell_length_a   4.56339700
_cell_length_b   8.52342700
_cell_length_c   13.67318500
_cell_angle_alpha   90.00000000
_cell_angle_beta   90.00000000
_cell_angle_gamma   90.00000000
_symmetry_Int_Tables_number   1
_chemical_formula_structural   Ba(PO3)2
_chemical_formula_sum   'Ba4 P8 O24'
_cell_volume   531.82921209
_cell_formula_units_Z   4
loop_
 _symmetry_equiv_pos_site_id
 _symmetry_equiv_pos_as_xyz
  1  'x, y, z'
loop_
 _atom_site_type_symbol
 _atom_site_label
 _atom_site_symmetry_multiplicity
 _atom_site_fract_x
 _atom_site_fract_y
 _atom_site_fract_z
 _atom_site_occupancy
  Ba  Ba0  1  0.00831000  0.44883500  0.12662200  1
  Ba  Ba1  1  0.50831000  0.05116500  0.87337800  1
  Ba  Ba2  1  0.99169000  0.94883500  0.37337800  1
  Ba  Ba3  1  0.49169000  0.55116500  0.62662200  1
  P  P4  1  0.96683200  0.67250900  0.84663900  1
  P  P5  1  0.46683200  0.82749100  0.15336100  1
  P  P6  1  0.03316800  0.17250900  0.65336100  1
  P  P7  1  0.53316800  0.32749100  0.34663900  1
  P  P8  1  0.46244200  0.46997000  0.89703200  1
  P  P9  1  0.96244200  0.03003000  0.10296800  1
  P  P10  1  0.53755800  0.96997000  0.60296800  1
  P  P11  1  0.03755800  0.53003000  0.39703200  1
  O  O12  1  0.53242200  0.66491700  0.11895100  1
  O  O13  1  0.03242200  0.83508300  0.88104900  1
  O  O14  1  0.46757800  0.16491700  0.38104900  1
  O  O15  1  0.96757800  0.33508300  0.61895100  1
  O  O16  1  0.49854900  0.37325400  0.24149700  1
  O  O17  1  0.99854900  0.12674600  0.75850300  1
  O  O18  1  0.50145100  0.87325400  0.25850300  1
  O  O19  1  0.00145100  0.62674600  0.74149700  1
  O  O20  1  0.54031200  0.38499000  0.98971200  1
  O  O21  1  0.04031200  0.11501000  0.01028800  1
  O  O22  1  0.45968800  0.88499000  0.51028800  1
  O  O23  1  0.95968800  0.61501000  0.48971200  1
  O  O24  1  0.36088400  0.45590800  0.41628400  1
  O  O25  1  0.86088400  0.04409200  0.58371600  1
  O  O26  1  0.63911600  0.95590800  0.08371600  1
  O  O27  1  0.13911600  0.54409200  0.91628400  1
  O  O28  1  0.86322800  0.36436300  0.38483300  1
  O  O29  1  0.36322800  0.13563700  0.61516700  1
  O  O30  1  0.13677200  0.86436300  0.11516700  1
  O  O31  1  0.63677200  0.63563700  0.88483300  1
  O  O32  1  0.02279200  0.62054900  0.30305000  1
  O  O33  1  0.52279200  0.87945100  0.69695000  1
  O  O34  1  0.97720800  0.12054900  0.19695000  1
  O  O35  1  0.47720800  0.37945100  0.80305000  1
