# generated using pymatgen
data_Th2BiN2
_symmetry_space_group_name_H-M   'P 1'
_cell_length_a   7.64442283
_cell_length_b   7.64442283
_cell_length_c   7.64442283
_cell_angle_alpha   149.03777043
_cell_angle_beta   149.03777043
_cell_angle_gamma   44.35571298
_symmetry_Int_Tables_number   1
_chemical_formula_structural   Th2BiN2
_chemical_formula_sum   'Th2 Bi1 N2'
_cell_volume   117.89013906
_cell_formula_units_Z   1
loop_
 _symmetry_equiv_pos_site_id
 _symmetry_equiv_pos_as_xyz
  1  'x, y, z'
loop_
 _atom_site_type_symbol
 _atom_site_label
 _atom_site_symmetry_multiplicity
 _atom_site_fract_x
 _atom_site_fract_y
 _atom_site_fract_z
 _atom_site_occupancy
  Th  Th0  1  0.33110200  0.33110200  0.00000000  1
  Th  Th1  1  0.66889800  0.66889800  0.00000000  1
  Bi  Bi2  1  0.00000000  0.00000000  0.00000000  1
  N  N3  1  0.25000000  0.75000000  0.50000000  1
  N  N4  1  0.75000000  0.25000000  0.50000000  1
