# generated using pymatgen
data_SeO3
_symmetry_space_group_name_H-M   'P 1'
_cell_length_a   10.09495800
_cell_length_b   10.09495800
_cell_length_c   5.55221800
_cell_angle_alpha   90.00000000
_cell_angle_beta   90.00000000
_cell_angle_gamma   90.00000000
_symmetry_Int_Tables_number   1
_chemical_formula_structural   SeO3
_chemical_formula_sum   'Se8 O24'
_cell_volume   565.81641481
_cell_formula_units_Z   8
loop_
 _symmetry_equiv_pos_site_id
 _symmetry_equiv_pos_as_xyz
  1  'x, y, z'
loop_
 _atom_site_type_symbol
 _atom_site_label
 _atom_site_symmetry_multiplicity
 _atom_site_fract_x
 _atom_site_fract_y
 _atom_site_fract_z
 _atom_site_occupancy
  Se  Se0  1  0.51089600  0.27880100  0.56083400  1
  Se  Se1  1  0.48910400  0.72119900  0.56083400  1
  Se  Se2  1  0.27880100  0.48910400  0.43916600  1
  Se  Se3  1  0.72119900  0.51089600  0.43916600  1
  Se  Se4  1  0.77880100  0.01089600  0.06083400  1
  Se  Se5  1  0.98910400  0.77880100  0.93916600  1
  Se  Se6  1  0.01089600  0.22119900  0.93916600  1
  Se  Se7  1  0.22119900  0.98910400  0.06083400  1
  O  O8  1  0.59453500  0.25965300  0.80586600  1
  O  O9  1  0.40546500  0.74034700  0.80586600  1
  O  O10  1  0.25965300  0.40546500  0.19413400  1
  O  O11  1  0.74034700  0.59453500  0.19413400  1
  O  O12  1  0.75965300  0.09453500  0.30586600  1
  O  O13  1  0.90546500  0.75965300  0.69413400  1
  O  O14  1  0.09453500  0.24034700  0.69413400  1
  O  O15  1  0.24034700  0.90546500  0.30586600  1
  O  O16  1  0.11719900  0.89863400  0.84593400  1
  O  O17  1  0.10136600  0.11719900  0.15406600  1
  O  O18  1  0.89863400  0.88280100  0.15406600  1
  O  O19  1  0.88280100  0.10136600  0.84593400  1
  O  O20  1  0.61719900  0.60136600  0.65406600  1
  O  O21  1  0.38280100  0.39863400  0.65406600  1
  O  O22  1  0.39863400  0.61719900  0.34593400  1
  O  O23  1  0.60136600  0.38280100  0.34593400  1
  O  O24  1  0.33551500  0.05284000  0.89542900  1
  O  O25  1  0.94716000  0.33551500  0.10457100  1
  O  O26  1  0.05284000  0.66448500  0.10457100  1
  O  O27  1  0.66448500  0.94716000  0.89542900  1
  O  O28  1  0.83551500  0.44716000  0.60457100  1
  O  O29  1  0.16448500  0.55284000  0.60457100  1
  O  O30  1  0.55284000  0.83551500  0.39542900  1
  O  O31  1  0.44716000  0.16448500  0.39542900  1
