# generated using pymatgen
data_K2Zr2O5
_symmetry_space_group_name_H-M   'P 1'
_cell_length_a   5.93262400
_cell_length_b   8.88578600
_cell_length_c   10.91006500
_cell_angle_alpha   90.00000000
_cell_angle_beta   90.00000000
_cell_angle_gamma   90.00000000
_symmetry_Int_Tables_number   1
_chemical_formula_structural   K2Zr2O5
_chemical_formula_sum   'K8 Zr8 O20'
_cell_volume   575.13528419
_cell_formula_units_Z   4
loop_
 _symmetry_equiv_pos_site_id
 _symmetry_equiv_pos_as_xyz
  1  'x, y, z'
loop_
 _atom_site_type_symbol
 _atom_site_label
 _atom_site_symmetry_multiplicity
 _atom_site_fract_x
 _atom_site_fract_y
 _atom_site_fract_z
 _atom_site_occupancy
  K  K0  1  0.06357200  0.42166100  0.16605900  1
  K  K1  1  0.06357200  0.07833900  0.33394100  1
  K  K2  1  0.43642800  0.42166100  0.83394100  1
  K  K3  1  0.43642800  0.07833900  0.66605900  1
  K  K4  1  0.93642800  0.57833900  0.83394100  1
  K  K5  1  0.93642800  0.92166100  0.66605900  1
  K  K6  1  0.56357200  0.57833900  0.16605900  1
  K  K7  1  0.56357200  0.92166100  0.33394100  1
  Zr  Zr8  1  0.53161200  0.34079100  0.42338200  1
  Zr  Zr9  1  0.53161200  0.15920900  0.07661800  1
  Zr  Zr10  1  0.96838800  0.34079100  0.57661800  1
  Zr  Zr11  1  0.96838800  0.15920900  0.92338200  1
  Zr  Zr12  1  0.46838800  0.65920900  0.57661800  1
  Zr  Zr13  1  0.46838800  0.84079100  0.92338200  1
  Zr  Zr14  1  0.03161200  0.65920900  0.42338200  1
  Zr  Zr15  1  0.03161200  0.84079100  0.07661800  1
  O  O16  1  0.49168000  0.25000000  0.25000000  1
  O  O17  1  0.00832000  0.25000000  0.75000000  1
  O  O18  1  0.50832000  0.75000000  0.75000000  1
  O  O19  1  0.99168000  0.75000000  0.25000000  1
  O  O20  1  0.25000000  0.82269500  0.50000000  1
  O  O21  1  0.25000000  0.67730500  0.00000000  1
  O  O22  1  0.75000000  0.17730500  0.50000000  1
  O  O23  1  0.75000000  0.32269500  0.00000000  1
  O  O24  1  0.25000000  0.24500000  0.50000000  1
  O  O25  1  0.25000000  0.25500000  0.00000000  1
  O  O26  1  0.75000000  0.75500000  0.50000000  1
  O  O27  1  0.75000000  0.74500000  0.00000000  1
  O  O28  1  0.37345200  0.94957900  0.10697600  1
  O  O29  1  0.37345200  0.55042100  0.39302400  1
  O  O30  1  0.12654800  0.94957900  0.89302400  1
  O  O31  1  0.12654800  0.55042100  0.60697600  1
  O  O32  1  0.87345200  0.44957900  0.39302400  1
  O  O33  1  0.87345200  0.05042100  0.10697600  1
  O  O34  1  0.62654800  0.44957900  0.60697600  1
  O  O35  1  0.62654800  0.05042100  0.89302400  1
