# generated using pymatgen
data_Na2TeO4
_symmetry_space_group_name_H-M   'P 1'
_cell_length_a   5.29161000
_cell_length_b   5.84186500
_cell_length_c   12.36747800
_cell_angle_alpha   90.00000000
_cell_angle_beta   90.00000000
_cell_angle_gamma   90.00000000
_symmetry_Int_Tables_number   1
_chemical_formula_structural   Na2TeO4
_chemical_formula_sum   'Na8 Te4 O16'
_cell_volume   382.31425513
_cell_formula_units_Z   4
loop_
 _symmetry_equiv_pos_site_id
 _symmetry_equiv_pos_as_xyz
  1  'x, y, z'
loop_
 _atom_site_type_symbol
 _atom_site_label
 _atom_site_symmetry_multiplicity
 _atom_site_fract_x
 _atom_site_fract_y
 _atom_site_fract_z
 _atom_site_occupancy
  Na  Na0  1  0.75000000  0.00000000  0.63829900  1
  Na  Na1  1  0.25000000  0.50000000  0.86170100  1
  Na  Na2  1  0.25000000  0.00000000  0.36170100  1
  Na  Na3  1  0.75000000  0.50000000  0.13829900  1
  Na  Na4  1  0.75000000  0.00000000  0.22592900  1
  Na  Na5  1  0.25000000  0.50000000  0.27407100  1
  Na  Na6  1  0.25000000  0.00000000  0.77407100  1
  Na  Na7  1  0.75000000  0.50000000  0.72592900  1
  Te  Te8  1  0.75000000  0.00000000  0.92830300  1
  Te  Te9  1  0.25000000  0.50000000  0.57169700  1
  Te  Te10  1  0.25000000  0.00000000  0.07169700  1
  Te  Te11  1  0.75000000  0.50000000  0.42830300  1
  O  O12  1  0.11234300  0.29836400  0.67392400  1
  O  O13  1  0.61234300  0.20163600  0.82607600  1
  O  O14  1  0.88765700  0.79836400  0.82607600  1
  O  O15  1  0.38765700  0.70163600  0.67392400  1
  O  O16  1  0.88765700  0.70163600  0.32607600  1
  O  O17  1  0.38765700  0.79836400  0.17392400  1
  O  O18  1  0.11234300  0.20163600  0.17392400  1
  O  O19  1  0.61234300  0.29836400  0.32607600  1
  O  O20  1  0.07090400  0.32068100  0.44975500  1
  O  O21  1  0.57090400  0.17931900  0.05024500  1
  O  O22  1  0.92909600  0.82068100  0.05024500  1
  O  O23  1  0.42909600  0.67931900  0.44975500  1
  O  O24  1  0.57090400  0.32068100  0.55024500  1
  O  O25  1  0.07090400  0.17931900  0.94975500  1
  O  O26  1  0.42909600  0.82068100  0.94975500  1
  O  O27  1  0.92909600  0.67931900  0.55024500  1
