# generated using pymatgen
data_CaClF
_symmetry_space_group_name_H-M   'P 1'
_cell_length_a   3.91446200
_cell_length_b   3.91446200
_cell_length_c   6.92565200
_cell_angle_alpha   90.00000000
_cell_angle_beta   90.00000000
_cell_angle_gamma   90.00000000
_symmetry_Int_Tables_number   1
_chemical_formula_structural   CaClF
_chemical_formula_sum   'Ca2 Cl2 F2'
_cell_volume   106.12185389
_cell_formula_units_Z   2
loop_
 _symmetry_equiv_pos_site_id
 _symmetry_equiv_pos_as_xyz
  1  'x, y, z'
loop_
 _atom_site_type_symbol
 _atom_site_label
 _atom_site_symmetry_multiplicity
 _atom_site_fract_x
 _atom_site_fract_y
 _atom_site_fract_z
 _atom_site_occupancy
  Ca  Ca0  1  0.00000000  0.50000000  0.80568000  1
  Ca  Ca1  1  0.50000000  0.00000000  0.19432000  1
  Cl  Cl2  1  0.50000000  0.00000000  0.64460600  1
  Cl  Cl3  1  0.00000000  0.50000000  0.35539400  1
  F  F4  1  0.50000000  0.50000000  0.00000000  1
  F  F5  1  0.00000000  0.00000000  0.00000000  1
