# generated using pymatgen
data_Ag3AuS2
_symmetry_space_group_name_H-M   'P 1'
_cell_length_a   9.87438500
_cell_length_b   9.87438500
_cell_length_c   9.87438500
_cell_angle_alpha   90.00000000
_cell_angle_beta   90.00000000
_cell_angle_gamma   90.00000000
_symmetry_Int_Tables_number   1
_chemical_formula_structural   Ag3AuS2
_chemical_formula_sum   'Ag24 Au8 S16'
_cell_volume   962.78689175
_cell_formula_units_Z   8
loop_
 _symmetry_equiv_pos_site_id
 _symmetry_equiv_pos_as_xyz
  1  'x, y, z'
loop_
 _atom_site_type_symbol
 _atom_site_label
 _atom_site_symmetry_multiplicity
 _atom_site_fract_x
 _atom_site_fract_y
 _atom_site_fract_z
 _atom_site_occupancy
  Ag  Ag0  1  0.25149700  0.38422200  0.00094000  1
  Ag  Ag1  1  0.49906000  0.74850300  0.88422200  1
  Ag  Ag2  1  0.75149700  0.11577800  0.99906000  1
  Ag  Ag3  1  0.00094000  0.25149700  0.38422200  1
  Ag  Ag4  1  0.24850300  0.61577800  0.50094000  1
  Ag  Ag5  1  0.74850300  0.88422200  0.49906000  1
  Ag  Ag6  1  0.50094000  0.24850300  0.61577800  1
  Ag  Ag7  1  0.88422200  0.49906000  0.74850300  1
  Ag  Ag8  1  0.61577800  0.50094000  0.24850300  1
  Ag  Ag9  1  0.11577800  0.99906000  0.75149700  1
  Ag  Ag10  1  0.75094000  0.63422200  0.99850300  1
  Ag  Ag11  1  0.74906000  0.36577800  0.49850300  1
  Ag  Ag12  1  0.50149700  0.24906000  0.13422200  1
  Ag  Ag13  1  0.49850300  0.74906000  0.36577800  1
  Ag  Ag14  1  0.86577800  0.00149700  0.25094000  1
  Ag  Ag15  1  0.36577800  0.49850300  0.74906000  1
  Ag  Ag16  1  0.24906000  0.13422200  0.50149700  1
  Ag  Ag17  1  0.99850300  0.75094000  0.63422200  1
  Ag  Ag18  1  0.00149700  0.25094000  0.86577800  1
  Ag  Ag19  1  0.13422200  0.50149700  0.24906000  1
  Ag  Ag20  1  0.63422200  0.99850300  0.75094000  1
  Ag  Ag21  1  0.38422200  0.00094000  0.25149700  1
  Ag  Ag22  1  0.99906000  0.75149700  0.11577800  1
  Ag  Ag23  1  0.25094000  0.86577800  0.00149700  1
  Au  Au24  1  0.62205600  0.62205600  0.62205600  1
  Au  Au25  1  0.87205600  0.62794400  0.37205600  1
  Au  Au26  1  0.62794400  0.37205600  0.87205600  1
  Au  Au27  1  0.37205600  0.87205600  0.62794400  1
  Au  Au28  1  0.12205600  0.87794400  0.37794400  1
  Au  Au29  1  0.87794400  0.37794400  0.12205600  1
  Au  Au30  1  0.37794400  0.12205600  0.87794400  1
  Au  Au31  1  0.12794400  0.12794400  0.12794400  1
  S  S32  1  0.76082900  0.76082900  0.76082900  1
  S  S33  1  0.01082900  0.48917100  0.51082900  1
  S  S34  1  0.48917100  0.51082900  0.01082900  1
  S  S35  1  0.51082900  0.01082900  0.48917100  1
  S  S36  1  0.26082900  0.73917100  0.23917100  1
  S  S37  1  0.73917100  0.23917100  0.26082900  1
  S  S38  1  0.23917100  0.26082900  0.73917100  1
  S  S39  1  0.98917100  0.98917100  0.98917100  1
  S  S40  1  0.76647100  0.23352900  0.73352900  1
  S  S41  1  0.23352900  0.73352900  0.76647100  1
  S  S42  1  0.98352900  0.01647100  0.51647100  1
  S  S43  1  0.01647100  0.51647100  0.98352900  1
  S  S44  1  0.51647100  0.98352900  0.01647100  1
  S  S45  1  0.26647100  0.26647100  0.26647100  1
  S  S46  1  0.48352900  0.48352900  0.48352900  1
  S  S47  1  0.73352900  0.76647100  0.23352900  1
