# generated using pymatgen
data_K3MoCl6
_symmetry_space_group_name_H-M   'P 1'
_cell_length_a   7.66191400
_cell_length_b   12.34234400
_cell_length_c   12.89253286
_cell_angle_alpha   71.40172263
_cell_angle_beta   90.00000000
_cell_angle_gamma   90.00000000
_symmetry_Int_Tables_number   1
_chemical_formula_structural   K3MoCl6
_chemical_formula_sum   'K12 Mo4 Cl24'
_cell_volume   1155.52618127
_cell_formula_units_Z   4
loop_
 _symmetry_equiv_pos_site_id
 _symmetry_equiv_pos_as_xyz
  1  'x, y, z'
loop_
 _atom_site_type_symbol
 _atom_site_label
 _atom_site_symmetry_multiplicity
 _atom_site_fract_x
 _atom_site_fract_y
 _atom_site_fract_z
 _atom_site_occupancy
  K  K0  1  0.93274500  0.26522100  0.18372600  1
  K  K1  1  0.43274500  0.23477900  0.81627400  1
  K  K2  1  0.06725500  0.73477900  0.81627400  1
  K  K3  1  0.56725500  0.76522100  0.18372600  1
  K  K4  1  0.43319100  0.11206800  0.18077200  1
  K  K5  1  0.93319100  0.38793200  0.81922800  1
  K  K6  1  0.56680900  0.88793200  0.81922800  1
  K  K7  1  0.06680900  0.61206800  0.18077200  1
  K  K8  1  0.46549200  0.35895100  0.40151900  1
  K  K9  1  0.96549200  0.14104900  0.59848100  1
  K  K10  1  0.53450800  0.64104900  0.59848100  1
  K  K11  1  0.03450800  0.85895100  0.40151900  1
  Mo  Mo12  1  0.50000000  0.00000000  0.50000000  1
  Mo  Mo13  1  0.00000000  0.50000000  0.50000000  1
  Mo  Mo14  1  0.50000000  0.50000000  0.00000000  1
  Mo  Mo15  1  0.00000000  0.00000000  0.00000000  1
  Cl  Cl16  1  0.99761700  0.37612700  0.38399900  1
  Cl  Cl17  1  0.49761700  0.12387300  0.61600100  1
  Cl  Cl18  1  0.00238300  0.62387300  0.61600100  1
  Cl  Cl19  1  0.50238300  0.87612700  0.38399900  1
  Cl  Cl20  1  0.69940700  0.50545200  0.14843000  1
  Cl  Cl21  1  0.19940700  0.99454800  0.85157000  1
  Cl  Cl22  1  0.30059300  0.49454800  0.85157000  1
  Cl  Cl23  1  0.80059300  0.00545200  0.14843000  1
  Cl  Cl24  1  0.63321200  0.31674500  0.99991300  1
  Cl  Cl25  1  0.13321200  0.18325500  0.00008700  1
  Cl  Cl26  1  0.36678800  0.68325500  0.00008700  1
  Cl  Cl27  1  0.86678800  0.81674500  0.99991300  1
  Cl  Cl28  1  0.68036900  0.14591700  0.36925800  1
  Cl  Cl29  1  0.18036900  0.35408300  0.63074200  1
  Cl  Cl30  1  0.31963100  0.85408300  0.63074200  1
  Cl  Cl31  1  0.81963100  0.64591700  0.36925800  1
  Cl  Cl32  1  0.20704700  0.89583200  0.14532300  1
  Cl  Cl33  1  0.70704700  0.60416800  0.85467700  1
  Cl  Cl34  1  0.79295300  0.10416800  0.85467700  1
  Cl  Cl35  1  0.29295300  0.39583200  0.14532300  1
  Cl  Cl36  1  0.26928000  0.59460600  0.40461800  1
  Cl  Cl37  1  0.76928000  0.90539400  0.59538200  1
  Cl  Cl38  1  0.73072000  0.40539400  0.59538200  1
  Cl  Cl39  1  0.23072000  0.09460600  0.40461800  1
