# generated using pymatgen
data_RbCoCl3
_symmetry_space_group_name_H-M   'P 1'
_cell_length_a   7.15989255
_cell_length_b   7.15989255
_cell_length_c   5.89353400
_cell_angle_alpha   90.00000000
_cell_angle_beta   90.00000000
_cell_angle_gamma   120.00000512
_symmetry_Int_Tables_number   1
_chemical_formula_structural   RbCoCl3
_chemical_formula_sum   'Rb2 Co2 Cl6'
_cell_volume   261.64920091
_cell_formula_units_Z   2
loop_
 _symmetry_equiv_pos_site_id
 _symmetry_equiv_pos_as_xyz
  1  'x, y, z'
loop_
 _atom_site_type_symbol
 _atom_site_label
 _atom_site_symmetry_multiplicity
 _atom_site_fract_x
 _atom_site_fract_y
 _atom_site_fract_z
 _atom_site_occupancy
  Rb  Rb0  1  0.33333300  0.66666700  0.75000000  1
  Rb  Rb1  1  0.66666700  0.33333300  0.25000000  1
  Co  Co2  1  0.00000000  0.00000000  0.00000000  1
  Co  Co3  1  0.00000000  0.00000000  0.50000000  1
  Cl  Cl4  1  0.84405700  0.15594300  0.75000000  1
  Cl  Cl5  1  0.68811400  0.84405700  0.25000000  1
  Cl  Cl6  1  0.15594300  0.31188600  0.25000000  1
  Cl  Cl7  1  0.84405700  0.68811400  0.75000000  1
  Cl  Cl8  1  0.15594300  0.84405700  0.25000000  1
  Cl  Cl9  1  0.31188600  0.15594300  0.75000000  1
