# generated using pymatgen
data_Bi6Br7
_symmetry_space_group_name_H-M   'P 1'
_cell_length_a   9.19429800
_cell_length_b   16.01728200
_cell_length_c   24.46221700
_cell_angle_alpha   90.00000000
_cell_angle_beta   90.00000000
_cell_angle_gamma   90.00000000
_symmetry_Int_Tables_number   1
_chemical_formula_structural   Bi6Br7
_chemical_formula_sum   'Bi48 Br56'
_cell_volume   3602.49355038
_cell_formula_units_Z   8
loop_
 _symmetry_equiv_pos_site_id
 _symmetry_equiv_pos_as_xyz
  1  'x, y, z'
loop_
 _atom_site_type_symbol
 _atom_site_label
 _atom_site_symmetry_multiplicity
 _atom_site_fract_x
 _atom_site_fract_y
 _atom_site_fract_z
 _atom_site_occupancy
  Bi  Bi0  1  0.82135300  0.83447700  0.80512000  1
  Bi  Bi1  1  0.82135300  0.16552300  0.19488000  1
  Bi  Bi2  1  0.67864700  0.33447700  0.69488000  1
  Bi  Bi3  1  0.67864700  0.66552300  0.30512000  1
  Bi  Bi4  1  0.17864700  0.16552300  0.19488000  1
  Bi  Bi5  1  0.17864700  0.83447700  0.80512000  1
  Bi  Bi6  1  0.32135300  0.66552300  0.30512000  1
  Bi  Bi7  1  0.32135300  0.33447700  0.69488000  1
  Bi  Bi8  1  0.81665700  0.78190000  0.95044800  1
  Bi  Bi9  1  0.81665700  0.21810000  0.04955200  1
  Bi  Bi10  1  0.68334300  0.28190000  0.54955200  1
  Bi  Bi11  1  0.68334300  0.71810000  0.45044800  1
  Bi  Bi12  1  0.18334300  0.21810000  0.04955200  1
  Bi  Bi13  1  0.18334300  0.78190000  0.95044800  1
  Bi  Bi14  1  0.31665700  0.71810000  0.45044800  1
  Bi  Bi15  1  0.31665700  0.28190000  0.54955200  1
  Bi  Bi16  1  0.74458200  0.65635400  0.85156400  1
  Bi  Bi17  1  0.74458200  0.34364600  0.14843600  1
  Bi  Bi18  1  0.75541800  0.15635400  0.64843600  1
  Bi  Bi19  1  0.75541800  0.84364600  0.35156400  1
  Bi  Bi20  1  0.25541800  0.34364600  0.14843600  1
  Bi  Bi21  1  0.25541800  0.65635400  0.85156400  1
  Bi  Bi22  1  0.24458200  0.84364600  0.35156400  1
  Bi  Bi23  1  0.24458200  0.15635400  0.64843600  1
  Bi  Bi24  1  0.00000000  0.61450900  0.93278800  1
  Bi  Bi25  1  0.00000000  0.38549100  0.06721200  1
  Bi  Bi26  1  0.50000000  0.11450900  0.56721200  1
  Bi  Bi27  1  0.50000000  0.88549100  0.43278800  1
  Bi  Bi28  1  0.00000000  0.92560500  0.89860200  1
  Bi  Bi29  1  0.00000000  0.07439500  0.10139800  1
  Bi  Bi30  1  0.50000000  0.42560500  0.60139800  1
  Bi  Bi31  1  0.50000000  0.57439500  0.39860200  1
  Bi  Bi32  1  0.00000000  0.67212300  0.76694400  1
  Bi  Bi33  1  0.00000000  0.32787700  0.23305600  1
  Bi  Bi34  1  0.50000000  0.17212300  0.73305600  1
  Bi  Bi35  1  0.50000000  0.82787700  0.26694400  1
  Bi  Bi36  1  0.00000000  0.90369100  0.59922200  1
  Bi  Bi37  1  0.00000000  0.09630900  0.40077800  1
  Bi  Bi38  1  0.50000000  0.40369100  0.90077800  1
  Bi  Bi39  1  0.50000000  0.59630900  0.09922200  1
  Bi  Bi40  1  0.00000000  0.32167200  0.85566200  1
  Bi  Bi41  1  0.00000000  0.67832800  0.14433800  1
  Bi  Bi42  1  0.50000000  0.82167200  0.64433800  1
  Bi  Bi43  1  0.50000000  0.17832800  0.35566200  1
  Bi  Bi44  1  0.00000000  0.54431500  0.58764900  1
  Bi  Bi45  1  0.00000000  0.45568500  0.41235100  1
  Bi  Bi46  1  0.50000000  0.04431500  0.91235100  1
  Bi  Bi47  1  0.50000000  0.95568500  0.08764900  1
  Br  Br48  1  0.80889600  0.79166300  0.66930800  1
  Br  Br49  1  0.80889600  0.20833700  0.33069200  1
  Br  Br50  1  0.69110400  0.29166300  0.83069200  1
  Br  Br51  1  0.69110400  0.70833700  0.16930800  1
  Br  Br52  1  0.19110400  0.20833700  0.33069200  1
  Br  Br53  1  0.19110400  0.79166300  0.66930800  1
  Br  Br54  1  0.30889600  0.70833700  0.16930800  1
  Br  Br55  1  0.30889600  0.29166300  0.83069200  1
  Br  Br56  1  0.77713400  0.55421000  0.66410700  1
  Br  Br57  1  0.77713400  0.44579000  0.33589300  1
  Br  Br58  1  0.72286600  0.05421000  0.83589300  1
  Br  Br59  1  0.72286600  0.94579000  0.16410700  1
  Br  Br60  1  0.22286600  0.44579000  0.33589300  1
  Br  Br61  1  0.22286600  0.55421000  0.66410700  1
  Br  Br62  1  0.27713400  0.94579000  0.16410700  1
  Br  Br63  1  0.27713400  0.05421000  0.83589300  1
  Br  Br64  1  0.69330900  0.91943600  0.56048400  1
  Br  Br65  1  0.69330900  0.08056400  0.43951600  1
  Br  Br66  1  0.80669100  0.41943600  0.93951600  1
  Br  Br67  1  0.80669100  0.58056400  0.06048400  1
  Br  Br68  1  0.30669100  0.08056400  0.43951600  1
  Br  Br69  1  0.30669100  0.91943600  0.56048400  1
  Br  Br70  1  0.19330900  0.58056400  0.06048400  1
  Br  Br71  1  0.19330900  0.41943600  0.93951600  1
  Br  Br72  1  0.72382200  0.00000000  0.00000000  1
  Br  Br73  1  0.77617800  0.50000000  0.50000000  1
  Br  Br74  1  0.27617800  0.00000000  0.00000000  1
  Br  Br75  1  0.22382200  0.50000000  0.50000000  1
  Br  Br76  1  0.00000000  0.07804400  0.55636700  1
  Br  Br77  1  0.00000000  0.92195600  0.44363300  1
  Br  Br78  1  0.50000000  0.57804400  0.94363300  1
  Br  Br79  1  0.50000000  0.42195600  0.05636700  1
  Br  Br80  1  0.00000000  0.36797400  0.60856400  1
  Br  Br81  1  0.00000000  0.63202600  0.39143600  1
  Br  Br82  1  0.50000000  0.86797400  0.89143600  1
  Br  Br83  1  0.50000000  0.13202600  0.10856400  1
  Br  Br84  1  0.00000000  0.22333000  0.75553900  1
  Br  Br85  1  0.00000000  0.77667000  0.24446100  1
  Br  Br86  1  0.50000000  0.72333000  0.74446100  1
  Br  Br87  1  0.50000000  0.27667000  0.25553900  1
  Br  Br88  1  0.00000000  0.18040100  0.93919300  1
  Br  Br89  1  0.00000000  0.81959900  0.06080700  1
  Br  Br90  1  0.50000000  0.68040100  0.56080700  1
  Br  Br91  1  0.50000000  0.31959900  0.43919300  1
  Br  Br92  1  0.00000000  0.99446300  0.69600400  1
  Br  Br93  1  0.00000000  0.00553700  0.30399600  1
  Br  Br94  1  0.50000000  0.49446300  0.80399600  1
  Br  Br95  1  0.50000000  0.50553700  0.19600400  1
  Br  Br96  1  0.00000000  0.71910300  0.54023000  1
  Br  Br97  1  0.00000000  0.28089700  0.45977000  1
  Br  Br98  1  0.50000000  0.21910300  0.95977000  1
  Br  Br99  1  0.50000000  0.78089700  0.04023000  1
  Br  Br100  1  0.00000000  0.46069000  0.78904600  1
  Br  Br101  1  0.00000000  0.53931000  0.21095400  1
  Br  Br102  1  0.50000000  0.96069000  0.71095400  1
  Br  Br103  1  0.50000000  0.03931000  0.28904600  1
