# generated using pymatgen
data_H5IO6
_symmetry_space_group_name_H-M   'P 1'
_cell_length_a   18.56454100
_cell_length_b   5.01494200
_cell_length_c   6.09658869
_cell_angle_alpha   57.29704075
_cell_angle_beta   90.00000000
_cell_angle_gamma   90.00000000
_symmetry_Int_Tables_number   1
_chemical_formula_structural   H5IO6
_chemical_formula_sum   'H20 I4 O24'
_cell_volume   477.61978690
_cell_formula_units_Z   4
loop_
 _symmetry_equiv_pos_site_id
 _symmetry_equiv_pos_as_xyz
  1  'x, y, z'
loop_
 _atom_site_type_symbol
 _atom_site_label
 _atom_site_symmetry_multiplicity
 _atom_site_fract_x
 _atom_site_fract_y
 _atom_site_fract_z
 _atom_site_occupancy
  H  H0  1  0.94070400  0.16528500  0.82875100  1
  H  H1  1  0.44070400  0.83471500  0.67124900  1
  H  H2  1  0.05929600  0.83471500  0.17124900  1
  H  H3  1  0.55929600  0.16528500  0.32875100  1
  H  H4  1  0.81134800  0.54148800  0.54801000  1
  H  H5  1  0.31134800  0.45851200  0.95199000  1
  H  H6  1  0.18865200  0.45851200  0.45199000  1
  H  H7  1  0.68865200  0.54148800  0.04801000  1
  H  H8  1  0.86850500  0.40787000  0.12370600  1
  H  H9  1  0.36850500  0.59213000  0.37629400  1
  H  H10  1  0.13149500  0.59213000  0.87629400  1
  H  H11  1  0.63149500  0.40787000  0.62370600  1
  H  H12  1  0.00062100  0.66909200  0.65696600  1
  H  H13  1  0.50062100  0.33090800  0.84303400  1
  H  H14  1  0.99937900  0.33090800  0.34303400  1
  H  H15  1  0.49937900  0.66909200  0.15696600  1
  H  H16  1  0.76234400  0.00677300  0.78204900  1
  H  H17  1  0.26234400  0.99322700  0.71795100  1
  H  H18  1  0.23765600  0.99322700  0.21795100  1
  H  H19  1  0.73765600  0.00677300  0.28204900  1
  I  I20  1  0.87902500  0.86928000  0.67018100  1
  I  I21  1  0.62097500  0.86928000  0.17018100  1
  I  I22  1  0.12097500  0.13072000  0.32981900  1
  I  I23  1  0.37902500  0.13072000  0.82981900  1
  O  O24  1  0.68249100  0.77626600  0.96219200  1
  O  O25  1  0.95014500  0.57354900  0.69303200  1
  O  O26  1  0.18249100  0.22373400  0.53780800  1
  O  O27  1  0.31750900  0.22373400  0.03780800  1
  O  O28  1  0.06385100  0.06720000  0.09945900  1
  O  O29  1  0.45014500  0.42645100  0.80696800  1
  O  O30  1  0.04985500  0.42645100  0.30696800  1
  O  O31  1  0.54985500  0.57354900  0.19303200  1
  O  O32  1  0.91660000  0.21290800  0.37544500  1
  O  O33  1  0.41660000  0.78709200  0.12455500  1
  O  O34  1  0.08340000  0.78709200  0.62455500  1
  O  O35  1  0.58340000  0.21290800  0.87544500  1
  O  O36  1  0.93614900  0.93280000  0.90054100  1
  O  O37  1  0.43614900  0.06720000  0.59945900  1
  O  O38  1  0.66605400  0.51865600  0.46699000  1
  O  O39  1  0.56385100  0.93280000  0.40054100  1
  O  O40  1  0.80194100  0.13931900  0.66019800  1
  O  O41  1  0.30194100  0.86068100  0.83980200  1
  O  O42  1  0.19805900  0.86068100  0.33980200  1
  O  O43  1  0.69805900  0.13931900  0.16019800  1
  O  O44  1  0.83394600  0.51865600  0.96699000  1
  O  O45  1  0.33394600  0.48134400  0.53301000  1
  O  O46  1  0.16605400  0.48134400  0.03301000  1
  O  O47  1  0.81750900  0.77626600  0.46219200  1
