# generated using pymatgen
data_NaSb5O8
_symmetry_space_group_name_H-M   'P 1'
_cell_length_a   7.37573700
_cell_length_b   7.53648726
_cell_length_c   9.83893883
_cell_angle_alpha   105.35616245
_cell_angle_beta   106.06806116
_cell_angle_gamma   86.36077635
_symmetry_Int_Tables_number   1
_chemical_formula_structural   NaSb5O8
_chemical_formula_sum   'Na2 Sb10 O16'
_cell_volume   506.76081737
_cell_formula_units_Z   2
loop_
 _symmetry_equiv_pos_site_id
 _symmetry_equiv_pos_as_xyz
  1  'x, y, z'
loop_
 _atom_site_type_symbol
 _atom_site_label
 _atom_site_symmetry_multiplicity
 _atom_site_fract_x
 _atom_site_fract_y
 _atom_site_fract_z
 _atom_site_occupancy
  Na  Na0  1  0.25586300  0.56095700  0.96725600  1
  Na  Na1  1  0.74413700  0.43904300  0.03274400  1
  Sb  Sb2  1  0.53656800  0.82107700  0.27747400  1
  Sb  Sb3  1  0.46343200  0.17892300  0.72252600  1
  Sb  Sb4  1  0.74304200  0.94514800  0.03024200  1
  Sb  Sb5  1  0.25695800  0.05485200  0.96975800  1
  Sb  Sb6  1  0.53744600  0.40115200  0.33435000  1
  Sb  Sb7  1  0.46255400  0.59884800  0.66565000  1
  Sb  Sb8  1  0.10203200  0.76192800  0.32904600  1
  Sb  Sb9  1  0.89796800  0.23807200  0.67095400  1
  Sb  Sb10  1  0.97822800  0.68873500  0.66134100  1
  Sb  Sb11  1  0.02177200  0.31126500  0.33865900  1
  O  O12  1  0.06090700  0.49012600  0.23049000  1
  O  O13  1  0.93909300  0.50987400  0.76951000  1
  O  O14  1  0.82232600  0.45746400  0.42604700  1
  O  O15  1  0.17767400  0.54253600  0.57395300  1
  O  O16  1  0.80922000  0.19689300  0.16114500  1
  O  O17  1  0.19078000  0.80310700  0.83885500  1
  O  O18  1  0.85413500  0.81086800  0.19574700  1
  O  O19  1  0.14586500  0.18913200  0.80425300  1
  O  O20  1  0.53998200  0.55446500  0.18211000  1
  O  O21  1  0.46001800  0.44553500  0.81789000  1
  O  O22  1  0.45143900  0.64196500  0.44175700  1
  O  O23  1  0.54856100  0.35803500  0.55824300  1
  O  O24  1  0.75284900  0.18418900  0.79805500  1
  O  O25  1  0.24715100  0.81581100  0.20194500  1
  O  O26  1  0.49388100  0.10226400  0.91612300  1
  O  O27  1  0.50611900  0.89773600  0.08387700  1
