# generated using pymatgen
data_Sr5(Br4Cl)2
_symmetry_space_group_name_H-M   'P 1'
_cell_length_a   11.60124100
_cell_length_b   11.60124100
_cell_length_c   7.15836700
_cell_angle_alpha   90.00000000
_cell_angle_beta   90.00000000
_cell_angle_gamma   90.00000000
_symmetry_Int_Tables_number   1
_chemical_formula_structural   Sr5(Br4Cl)2
_chemical_formula_sum   'Sr10 Br16 Cl4'
_cell_volume   963.43597252
_cell_formula_units_Z   2
loop_
 _symmetry_equiv_pos_site_id
 _symmetry_equiv_pos_as_xyz
  1  'x, y, z'
loop_
 _atom_site_type_symbol
 _atom_site_label
 _atom_site_symmetry_multiplicity
 _atom_site_fract_x
 _atom_site_fract_y
 _atom_site_fract_z
 _atom_site_occupancy
  Sr  Sr0  1  0.50000000  0.00000000  0.15000800  1
  Sr  Sr1  1  0.00000000  0.50000000  0.84999200  1
  Sr  Sr2  1  0.84321900  0.85947700  0.75175300  1
  Sr  Sr3  1  0.35947700  0.65678100  0.75175300  1
  Sr  Sr4  1  0.64052300  0.34321900  0.75175300  1
  Sr  Sr5  1  0.15678100  0.14052300  0.75175300  1
  Sr  Sr6  1  0.65678100  0.64052300  0.24824700  1
  Sr  Sr7  1  0.14052300  0.84321900  0.24824700  1
  Sr  Sr8  1  0.85947700  0.15678100  0.24824700  1
  Sr  Sr9  1  0.34321900  0.35947700  0.24824700  1
  Br  Br10  1  0.70921500  0.08938200  0.90184100  1
  Br  Br11  1  0.58938200  0.79078500  0.90184100  1
  Br  Br12  1  0.41061800  0.20921500  0.90184100  1
  Br  Br13  1  0.29078500  0.91061800  0.90184100  1
  Br  Br14  1  0.79078500  0.41061800  0.09815900  1
  Br  Br15  1  0.91061800  0.70921500  0.09815900  1
  Br  Br16  1  0.21242900  0.40308200  0.62293900  1
  Br  Br17  1  0.90308200  0.28757100  0.62293900  1
  Br  Br18  1  0.09691800  0.71242900  0.62293900  1
  Br  Br19  1  0.78757100  0.59691800  0.62293900  1
  Br  Br20  1  0.28757100  0.09691800  0.37706100  1
  Br  Br21  1  0.59691800  0.21242900  0.37706100  1
  Br  Br22  1  0.40308200  0.78757100  0.37706100  1
  Br  Br23  1  0.71242900  0.90308200  0.37706100  1
  Br  Br24  1  0.20921500  0.58938200  0.09815900  1
  Br  Br25  1  0.08938200  0.29078500  0.09815900  1
  Cl  Cl26  1  0.00000000  0.00000000  0.50000000  1
  Cl  Cl27  1  0.50000000  0.50000000  0.50000000  1
  Cl  Cl28  1  0.00000000  0.00000000  0.00000000  1
  Cl  Cl29  1  0.50000000  0.50000000  0.00000000  1
