# generated using pymatgen
data_Pb9(Br5O2)2
_symmetry_space_group_name_H-M   'P 1'
_cell_length_a   12.56246600
_cell_length_b   12.56246600
_cell_length_c   8.64829600
_cell_angle_alpha   90.00000000
_cell_angle_beta   90.00000000
_cell_angle_gamma   90.00000000
_symmetry_Int_Tables_number   1
_chemical_formula_structural   Pb9(Br5O2)2
_chemical_formula_sum   'Pb18 Br20 O8'
_cell_volume   1364.83560711
_cell_formula_units_Z   2
loop_
 _symmetry_equiv_pos_site_id
 _symmetry_equiv_pos_as_xyz
  1  'x, y, z'
loop_
 _atom_site_type_symbol
 _atom_site_label
 _atom_site_symmetry_multiplicity
 _atom_site_fract_x
 _atom_site_fract_y
 _atom_site_fract_z
 _atom_site_occupancy
  Pb  Pb0  1  0.50000000  0.00000000  0.80002200  1
  Pb  Pb1  1  0.00000000  0.50000000  0.19997800  1
  Pb  Pb2  1  0.74004500  0.57564900  0.80559800  1
  Pb  Pb3  1  0.07564900  0.75995500  0.80559800  1
  Pb  Pb4  1  0.92435100  0.24004500  0.80559800  1
  Pb  Pb5  1  0.25995500  0.42435100  0.80559800  1
  Pb  Pb6  1  0.75995500  0.92435100  0.19440200  1
  Pb  Pb7  1  0.42435100  0.74004500  0.19440200  1
  Pb  Pb8  1  0.57564900  0.25995500  0.19440200  1
  Pb  Pb9  1  0.24004500  0.07564900  0.19440200  1
  Pb  Pb10  1  0.55147900  0.36194500  0.64404000  1
  Pb  Pb11  1  0.86194500  0.94852100  0.64404000  1
  Pb  Pb12  1  0.13805500  0.05147900  0.64404000  1
  Pb  Pb13  1  0.44852100  0.63805500  0.64404000  1
  Pb  Pb14  1  0.94852100  0.13805500  0.35596000  1
  Pb  Pb15  1  0.63805500  0.55147900  0.35596000  1
  Pb  Pb16  1  0.36194500  0.44852100  0.35596000  1
  Pb  Pb17  1  0.05147900  0.86194500  0.35596000  1
  Br  Br18  1  0.50000000  0.00000000  0.12025200  1
  Br  Br19  1  0.00000000  0.50000000  0.87974800  1
  Br  Br20  1  0.37892100  0.18754100  0.40848700  1
  Br  Br21  1  0.68754100  0.12107900  0.40848700  1
  Br  Br22  1  0.31245900  0.87892100  0.40848700  1
  Br  Br23  1  0.62107900  0.81245900  0.40848700  1
  Br  Br24  1  0.12107900  0.31245900  0.59151300  1
  Br  Br25  1  0.81245900  0.37892100  0.59151300  1
  Br  Br26  1  0.18754100  0.62107900  0.59151300  1
  Br  Br27  1  0.87892100  0.68754100  0.59151300  1
  Br  Br28  1  0.00000000  0.00000000  0.00000000  1
  Br  Br29  1  0.50000000  0.50000000  0.00000000  1
  Br  Br30  1  0.87479700  0.70754900  0.12871900  1
  Br  Br31  1  0.20754900  0.62520300  0.12871900  1
  Br  Br32  1  0.79245100  0.37479700  0.12871900  1
  Br  Br33  1  0.12520300  0.29245100  0.12871900  1
  Br  Br34  1  0.62520300  0.79245100  0.87128100  1
  Br  Br35  1  0.29245100  0.87479700  0.87128100  1
  Br  Br36  1  0.70754900  0.12520300  0.87128100  1
  Br  Br37  1  0.37479700  0.20754900  0.87128100  1
  O  O38  1  0.60991900  0.54357000  0.62445000  1
  O  O39  1  0.04357000  0.89008100  0.62445000  1
  O  O40  1  0.95643000  0.10991900  0.62445000  1
  O  O41  1  0.39008100  0.45643000  0.62445000  1
  O  O42  1  0.89008100  0.95643000  0.37555000  1
  O  O43  1  0.45643000  0.60991900  0.37555000  1
  O  O44  1  0.54357000  0.39008100  0.37555000  1
  O  O45  1  0.10991900  0.04357000  0.37555000  1
