# generated using pymatgen
data_Tl3AgI5
_symmetry_space_group_name_H-M   'P 1'
_cell_length_a   10.80941526
_cell_length_b   10.80941526
_cell_length_c   13.51274800
_cell_angle_alpha   90.00000000
_cell_angle_beta   90.00000000
_cell_angle_gamma   119.99999546
_symmetry_Int_Tables_number   1
_chemical_formula_structural   Tl3AgI5
_chemical_formula_sum   'Tl12 Ag4 I20'
_cell_volume   1367.34696683
_cell_formula_units_Z   4
loop_
 _symmetry_equiv_pos_site_id
 _symmetry_equiv_pos_as_xyz
  1  'x, y, z'
loop_
 _atom_site_type_symbol
 _atom_site_label
 _atom_site_symmetry_multiplicity
 _atom_site_fract_x
 _atom_site_fract_y
 _atom_site_fract_z
 _atom_site_occupancy
  Tl  Tl0  1  0.96564200  0.61485100  0.75000000  1
  Tl  Tl1  1  0.38514900  0.35079100  0.75000000  1
  Tl  Tl2  1  0.64920900  0.03435800  0.75000000  1
  Tl  Tl3  1  0.03435800  0.64920900  0.25000000  1
  Tl  Tl4  1  0.35079100  0.38514900  0.25000000  1
  Tl  Tl5  1  0.61485100  0.96564200  0.25000000  1
  Tl  Tl6  1  0.36294800  0.00000000  0.50000000  1
  Tl  Tl7  1  0.63705200  0.63705200  0.00000000  1
  Tl  Tl8  1  0.00000000  0.36294800  0.00000000  1
  Tl  Tl9  1  0.00000000  0.36294800  0.50000000  1
  Tl  Tl10  1  0.63705200  0.63705200  0.50000000  1
  Tl  Tl11  1  0.36294800  0.00000000  0.00000000  1
  Ag  Ag12  1  0.00000000  0.00000000  0.38023800  1
  Ag  Ag13  1  0.00000000  0.00000000  0.88023800  1
  Ag  Ag14  1  0.00000000  0.00000000  0.61976200  1
  Ag  Ag15  1  0.00000000  0.00000000  0.11976200  1
  I  I16  1  0.66666700  0.33333300  0.89802800  1
  I  I17  1  0.66666700  0.33333300  0.60197200  1
  I  I18  1  0.33333300  0.66666700  0.10197200  1
  I  I19  1  0.33333300  0.66666700  0.39802800  1
  I  I20  1  0.00626500  0.24368400  0.75000000  1
  I  I21  1  0.75631600  0.76258100  0.75000000  1
  I  I22  1  0.23741900  0.99373500  0.75000000  1
  I  I23  1  0.99373500  0.23741900  0.25000000  1
  I  I24  1  0.66666700  0.33333300  0.35763400  1
  I  I25  1  0.33333300  0.66666700  0.85763400  1
  I  I26  1  0.33333300  0.66666700  0.64236600  1
  I  I27  1  0.66666700  0.33333300  0.14236600  1
  I  I28  1  0.75501800  0.00000000  0.00000000  1
  I  I29  1  0.24498200  0.24498200  0.50000000  1
  I  I30  1  0.00000000  0.75501800  0.50000000  1
  I  I31  1  0.00000000  0.75501800  0.00000000  1
  I  I32  1  0.24498200  0.24498200  0.00000000  1
  I  I33  1  0.75501800  0.00000000  0.50000000  1
  I  I34  1  0.24368400  0.00626500  0.25000000  1
  I  I35  1  0.76258100  0.75631600  0.25000000  1
