# generated using pymatgen
data_SiAg2O3
_symmetry_space_group_name_H-M   'P 1'
_cell_length_a   4.61256800
_cell_length_b   7.12957000
_cell_length_c   10.25375800
_cell_angle_alpha   90.00000000
_cell_angle_beta   90.00000000
_cell_angle_gamma   90.00000000
_symmetry_Int_Tables_number   1
_chemical_formula_structural   SiAg2O3
_chemical_formula_sum   'Si4 Ag8 O12'
_cell_volume   337.20125515
_cell_formula_units_Z   4
loop_
 _symmetry_equiv_pos_site_id
 _symmetry_equiv_pos_as_xyz
  1  'x, y, z'
loop_
 _atom_site_type_symbol
 _atom_site_label
 _atom_site_symmetry_multiplicity
 _atom_site_fract_x
 _atom_site_fract_y
 _atom_site_fract_z
 _atom_site_occupancy
  Si  Si0  1  0.95306900  0.14198500  0.43712400  1
  Si  Si1  1  0.04693100  0.64198500  0.06287600  1
  Si  Si2  1  0.45306900  0.35801500  0.56287600  1
  Si  Si3  1  0.54693100  0.85801500  0.93712400  1
  Ag  Ag4  1  0.39967900  0.86390900  0.61802500  1
  Ag  Ag5  1  0.10032100  0.13609100  0.11802500  1
  Ag  Ag6  1  0.60032100  0.36390900  0.88197500  1
  Ag  Ag7  1  0.89967900  0.63609100  0.38197500  1
  Ag  Ag8  1  0.97647900  0.59216300  0.72369100  1
  Ag  Ag9  1  0.47647900  0.90783700  0.27630900  1
  Ag  Ag10  1  0.02352100  0.09216300  0.77630900  1
  Ag  Ag11  1  0.52352100  0.40783700  0.22369100  1
  O  O12  1  0.30379500  0.34542600  0.70882300  1
  O  O13  1  0.80379500  0.15457400  0.29117700  1
  O  O14  1  0.69620500  0.84542600  0.79117700  1
  O  O15  1  0.19620500  0.65457400  0.20882300  1
  O  O16  1  0.90331000  0.43754700  0.03696600  1
  O  O17  1  0.40331000  0.06245300  0.96303400  1
  O  O18  1  0.09669000  0.93754700  0.46303400  1
  O  O19  1  0.19859600  0.31270000  0.45146500  1
  O  O20  1  0.30140400  0.68730000  0.95146500  1
  O  O21  1  0.80140400  0.81270000  0.04853500  1
  O  O22  1  0.69859600  0.18730000  0.54853500  1
  O  O23  1  0.59669000  0.56245300  0.53696600  1
