# generated using pymatgen
data_Rb3Sb2Br9
_symmetry_space_group_name_H-M   'P 1'
_cell_length_a   8.05060883
_cell_length_b   8.05060883
_cell_length_c   9.77617900
_cell_angle_alpha   90.00000000
_cell_angle_beta   90.00000000
_cell_angle_gamma   120.00000680
_symmetry_Int_Tables_number   1
_chemical_formula_structural   Rb3Sb2Br9
_chemical_formula_sum   'Rb3 Sb2 Br9'
_cell_volume   548.72809543
_cell_formula_units_Z   1
loop_
 _symmetry_equiv_pos_site_id
 _symmetry_equiv_pos_as_xyz
  1  'x, y, z'
loop_
 _atom_site_type_symbol
 _atom_site_label
 _atom_site_symmetry_multiplicity
 _atom_site_fract_x
 _atom_site_fract_y
 _atom_site_fract_z
 _atom_site_occupancy
  Rb  Rb0  1  0.00000000  0.00000000  0.00000000  1
  Rb  Rb1  1  0.66666700  0.33333300  0.66976400  1
  Rb  Rb2  1  0.33333300  0.66666700  0.33023600  1
  Sb  Sb3  1  0.66666700  0.33333300  0.18799200  1
  Sb  Sb4  1  0.33333300  0.66666700  0.81200800  1
  Br  Br5  1  0.82784400  0.17215600  0.33879700  1
  Br  Br6  1  0.82784400  0.65568800  0.33879700  1
  Br  Br7  1  0.34431200  0.17215600  0.33879700  1
  Br  Br8  1  0.65568800  0.82784400  0.66120300  1
  Br  Br9  1  0.17215600  0.34431200  0.66120300  1
  Br  Br10  1  0.50000000  0.50000000  0.00000000  1
  Br  Br11  1  0.50000000  0.00000000  0.00000000  1
  Br  Br12  1  0.00000000  0.50000000  0.00000000  1
  Br  Br13  1  0.17215600  0.82784400  0.66120300  1
