# generated using pymatgen
data_Na3Sb5F18
_symmetry_space_group_name_H-M   'P 1'
_cell_length_a   24.26632800
_cell_length_b   5.58879000
_cell_length_c   13.45194108
_cell_angle_alpha   66.43876173
_cell_angle_beta   90.00000000
_cell_angle_gamma   90.00000000
_symmetry_Int_Tables_number   1
_chemical_formula_structural   Na3Sb5F18
_chemical_formula_sum   'Na12 Sb20 F72'
_cell_volume   1672.25487934
_cell_formula_units_Z   4
loop_
 _symmetry_equiv_pos_site_id
 _symmetry_equiv_pos_as_xyz
  1  'x, y, z'
loop_
 _atom_site_type_symbol
 _atom_site_label
 _atom_site_symmetry_multiplicity
 _atom_site_fract_x
 _atom_site_fract_y
 _atom_site_fract_z
 _atom_site_occupancy
  Na  Na0  1  0.06861200  0.23712100  0.99206700  1
  Na  Na1  1  0.56861200  0.76287900  0.50793300  1
  Na  Na2  1  0.93138800  0.76287900  0.00793300  1
  Na  Na3  1  0.43138800  0.23712100  0.49206700  1
  Na  Na4  1  0.19330500  0.45827400  0.75990600  1
  Na  Na5  1  0.69330500  0.54172600  0.74009400  1
  Na  Na6  1  0.80669500  0.54172600  0.24009400  1
  Na  Na7  1  0.30669500  0.45827400  0.25990600  1
  Na  Na8  1  0.06708700  0.99253300  0.75781500  1
  Na  Na9  1  0.56708700  0.00746700  0.74218500  1
  Na  Na10  1  0.93291300  0.00746700  0.24218500  1
  Na  Na11  1  0.43291300  0.99253300  0.25781500  1
  Sb  Sb12  1  0.69558500  0.86792700  0.96629500  1
  Sb  Sb13  1  0.19558500  0.13207300  0.53370500  1
  Sb  Sb14  1  0.30441500  0.13207300  0.03370500  1
  Sb  Sb15  1  0.80441500  0.86792700  0.46629500  1
  Sb  Sb16  1  0.93353500  0.33635100  0.46946700  1
  Sb  Sb17  1  0.43353500  0.66364900  0.03053300  1
  Sb  Sb18  1  0.06646500  0.66364900  0.53053300  1
  Sb  Sb19  1  0.56646500  0.33635100  0.96946700  1
  Sb  Sb20  1  0.82046400  0.94366200  0.75634700  1
  Sb  Sb21  1  0.32046400  0.05633800  0.74365300  1
  Sb  Sb22  1  0.17953600  0.05633800  0.24365300  1
  Sb  Sb23  1  0.67953600  0.94366200  0.25634700  1
  Sb  Sb24  1  0.32603000  0.77541600  0.46445200  1
  Sb  Sb25  1  0.82603000  0.22458400  0.03554800  1
  Sb  Sb26  1  0.67397000  0.22458400  0.53554800  1
  Sb  Sb27  1  0.17397000  0.77541600  0.96445200  1
  Sb  Sb28  1  0.54409200  0.48649600  0.28449700  1
  Sb  Sb29  1  0.04409200  0.51350400  0.21550300  1
  Sb  Sb30  1  0.45590800  0.51350400  0.71550300  1
  Sb  Sb31  1  0.95590800  0.48649600  0.78449700  1
  F  F32  1  0.11493800  0.62275400  0.89761500  1
  F  F33  1  0.61493800  0.37724600  0.60238500  1
  F  F34  1  0.88506200  0.37724600  0.10238500  1
  F  F35  1  0.38506200  0.62275400  0.39761500  1
  F  F36  1  0.13498000  0.10057000  0.86591100  1
  F  F37  1  0.63498000  0.89943000  0.63408900  1
  F  F38  1  0.86502000  0.89943000  0.13408900  1
  F  F39  1  0.36502000  0.10057000  0.36591100  1
  F  F40  1  0.11833700  0.46359400  0.64639700  1
  F  F41  1  0.61833700  0.53640600  0.85360300  1
  F  F42  1  0.88166300  0.53640600  0.35360300  1
  F  F43  1  0.38166300  0.46359400  0.14639700  1
  F  F44  1  0.23781400  0.09533800  0.91382800  1
  F  F45  1  0.73781400  0.90466200  0.58617200  1
  F  F46  1  0.76218600  0.90466200  0.08617200  1
  F  F47  1  0.26218600  0.09533800  0.41382800  1
  F  F48  1  0.40129600  0.47731000  0.94587000  1
  F  F49  1  0.90129600  0.52269000  0.55413000  1
  F  F50  1  0.59870400  0.52269000  0.05413000  1
  F  F51  1  0.09870400  0.47731000  0.44587000  1
  F  F52  1  0.13703300  0.96437300  0.64535600  1
  F  F53  1  0.63703300  0.03562700  0.85464400  1
  F  F54  1  0.86296700  0.03562700  0.35464400  1
  F  F55  1  0.36296700  0.96437300  0.14535600  1
  F  F56  1  0.34541800  0.92495300  0.95775400  1
  F  F57  1  0.84541800  0.07504700  0.54224600  1
  F  F58  1  0.65458200  0.07504700  0.04224600  1
  F  F59  1  0.15458200  0.92495300  0.45775400  1
  F  F60  1  0.08515800  0.77905900  0.07469100  1
  F  F61  1  0.58515800  0.22094100  0.42530900  1
  F  F62  1  0.91484200  0.22094100  0.92530900  1
  F  F63  1  0.41484200  0.77905900  0.57469100  1
  F  F64  1  0.27920000  0.68828900  0.36141900  1
  F  F65  1  0.77920000  0.31171100  0.13858100  1
  F  F66  1  0.72080000  0.31171100  0.63858100  1
  F  F67  1  0.22080000  0.68828900  0.86141900  1
  F  F68  1  0.01841000  0.34190400  0.60033400  1
  F  F69  1  0.51841000  0.65809600  0.89966600  1
  F  F70  1  0.98159000  0.65809600  0.39966600  1
  F  F71  1  0.48159000  0.34190400  0.10033400  1
  F  F72  1  0.02039500  0.72683700  0.68523400  1
  F  F73  1  0.52039500  0.27316300  0.81476600  1
  F  F74  1  0.97960500  0.27316300  0.31476600  1
  F  F75  1  0.47960500  0.72683700  0.18523400  1
  F  F76  1  0.01572600  0.36768300  0.11351700  1
  F  F77  1  0.51572600  0.63231700  0.38648300  1
  F  F78  1  0.98427400  0.63231700  0.88648300  1
  F  F79  1  0.48427400  0.36768300  0.61351700  1
  F  F80  1  0.15996300  0.21043300  0.08527700  1
  F  F81  1  0.65996300  0.78956700  0.41472300  1
  F  F82  1  0.84003700  0.78956700  0.91472300  1
  F  F83  1  0.34003700  0.21043300  0.58527700  1
  F  F84  1  0.23542800  0.80264300  0.61596900  1
  F  F85  1  0.73542800  0.19735700  0.88403100  1
  F  F86  1  0.76457200  0.19735700  0.38403100  1
  F  F87  1  0.26457200  0.80264300  0.11596900  1
  F  F88  1  0.25984400  0.21893500  0.16992500  1
  F  F89  1  0.75984400  0.78106500  0.33007500  1
  F  F90  1  0.74015600  0.78106500  0.83007500  1
  F  F91  1  0.24015600  0.21893500  0.66992500  1
  F  F92  1  0.09427800  0.07960700  0.25623600  1
  F  F93  1  0.59427800  0.92039300  0.24376400  1
  F  F94  1  0.90572200  0.92039300  0.74376400  1
  F  F95  1  0.40572200  0.07960700  0.75623600  1
  F  F96  1  0.01619400  0.21792200  0.84478100  1
  F  F97  1  0.51619400  0.78207800  0.65521900  1
  F  F98  1  0.98380600  0.78207800  0.15521900  1
  F  F99  1  0.48380600  0.21792200  0.34478100  1
  F  F100  1  0.32322900  0.39920700  0.75090400  1
  F  F101  1  0.82322900  0.60079300  0.74909600  1
  F  F102  1  0.67677100  0.60079300  0.24909600  1
  F  F103  1  0.17677100  0.39920700  0.25090400  1
