# generated using pymatgen
data_TbTe2
_symmetry_space_group_name_H-M   'P 1'
_cell_length_a   4.45522700
_cell_length_b   4.45522700
_cell_length_c   8.94202100
_cell_angle_alpha   90.00000000
_cell_angle_beta   90.00000000
_cell_angle_gamma   90.00000000
_symmetry_Int_Tables_number   1
_chemical_formula_structural   TbTe2
_chemical_formula_sum   'Tb2 Te4'
_cell_volume   177.49060066
_cell_formula_units_Z   2
loop_
 _symmetry_equiv_pos_site_id
 _symmetry_equiv_pos_as_xyz
  1  'x, y, z'
loop_
 _atom_site_type_symbol
 _atom_site_label
 _atom_site_symmetry_multiplicity
 _atom_site_fract_x
 _atom_site_fract_y
 _atom_site_fract_z
 _atom_site_occupancy
  Tb  Tb0  1  0.00000000  0.50000000  0.72842900  1
  Tb  Tb1  1  0.50000000  0.00000000  0.27157100  1
  Te  Te2  1  0.00000000  0.00000000  0.00000000  1
  Te  Te3  1  0.50000000  0.50000000  0.00000000  1
  Te  Te4  1  0.00000000  0.50000000  0.37156400  1
  Te  Te5  1  0.50000000  0.00000000  0.62843600  1
