# generated using pymatgen
data_SrH4O3
_symmetry_space_group_name_H-M   'P 1'
_cell_length_a   3.68772300
_cell_length_b   6.23050600
_cell_length_c   6.76900500
_cell_angle_alpha   90.00000000
_cell_angle_beta   90.00000000
_cell_angle_gamma   90.00000000
_symmetry_Int_Tables_number   1
_chemical_formula_structural   SrH4O3
_chemical_formula_sum   'Sr2 H8 O6'
_cell_volume   155.52723298
_cell_formula_units_Z   2
loop_
 _symmetry_equiv_pos_site_id
 _symmetry_equiv_pos_as_xyz
  1  'x, y, z'
loop_
 _atom_site_type_symbol
 _atom_site_label
 _atom_site_symmetry_multiplicity
 _atom_site_fract_x
 _atom_site_fract_y
 _atom_site_fract_z
 _atom_site_occupancy
  Sr  Sr0  1  0.00000000  0.62630700  0.74890800  1
  Sr  Sr1  1  0.00000000  0.37369300  0.24890800  1
  H  H2  1  0.50000000  0.29617000  0.59408000  1
  H  H3  1  0.50000000  0.70383000  0.09408000  1
  H  H4  1  0.50000000  0.96667900  0.60631400  1
  H  H5  1  0.50000000  0.03332100  0.10631400  1
  H  H6  1  0.20964900  0.11991300  0.83091500  1
  H  H7  1  0.79035100  0.88008700  0.33091500  1
  H  H8  1  0.20964900  0.88008700  0.33091500  1
  H  H9  1  0.79035100  0.11991300  0.83091500  1
  O  O10  1  0.00000000  0.21323500  0.87631400  1
  O  O11  1  0.50000000  0.56191600  0.03315300  1
  O  O12  1  0.50000000  0.93920000  0.74820100  1
  O  O13  1  0.50000000  0.06080000  0.24820100  1
  O  O14  1  0.00000000  0.78676500  0.37631400  1
  O  O15  1  0.50000000  0.43808400  0.53315300  1
