# generated using pymatgen
data_Si2NCl5
_symmetry_space_group_name_H-M   'P 1'
_cell_length_a   13.44986100
_cell_length_b   6.81758000
_cell_length_c   11.71044688
_cell_angle_alpha   67.78975555
_cell_angle_beta   90.00000000
_cell_angle_gamma   90.00000000
_symmetry_Int_Tables_number   1
_chemical_formula_structural   Si2NCl5
_chemical_formula_sum   'Si8 N4 Cl20'
_cell_volume   994.12294324
_cell_formula_units_Z   4
loop_
 _symmetry_equiv_pos_site_id
 _symmetry_equiv_pos_as_xyz
  1  'x, y, z'
loop_
 _atom_site_type_symbol
 _atom_site_label
 _atom_site_symmetry_multiplicity
 _atom_site_fract_x
 _atom_site_fract_y
 _atom_site_fract_z
 _atom_site_occupancy
  Si  Si0  1  0.58679200  0.55758500  0.50811800  1
  Si  Si1  1  0.08679200  0.44241500  0.99188200  1
  Si  Si2  1  0.41320800  0.44241500  0.49188200  1
  Si  Si3  1  0.91320800  0.55758500  0.00811800  1
  Si  Si4  1  0.49809900  0.77634700  0.23752800  1
  Si  Si5  1  0.99809900  0.22365300  0.26247200  1
  Si  Si6  1  0.50190100  0.22365300  0.76247200  1
  Si  Si7  1  0.00190100  0.77634700  0.73752800  1
  N  N8  1  0.49645200  0.62449100  0.39231600  1
  N  N9  1  0.99645200  0.37550900  0.10768400  1
  N  N10  1  0.50354800  0.37550900  0.60768400  1
  N  N11  1  0.00354800  0.62449100  0.89231600  1
  Cl  Cl12  1  0.71261000  0.43075900  0.46833700  1
  Cl  Cl13  1  0.21261000  0.56924100  0.03166300  1
  Cl  Cl14  1  0.28739000  0.56924100  0.53166300  1
  Cl  Cl15  1  0.78739000  0.43075900  0.96833700  1
  Cl  Cl16  1  0.62824800  0.79334600  0.56439900  1
  Cl  Cl17  1  0.12824800  0.20665400  0.93560100  1
  Cl  Cl18  1  0.37175200  0.20665400  0.43560100  1
  Cl  Cl19  1  0.87175200  0.79334600  0.06439900  1
  Cl  Cl20  1  0.36400700  0.92209200  0.18447400  1
  Cl  Cl21  1  0.86400700  0.07790800  0.31552600  1
  Cl  Cl22  1  0.63599300  0.07790800  0.81552600  1
  Cl  Cl23  1  0.13599300  0.92209200  0.68447400  1
  Cl  Cl24  1  0.60776600  0.99761300  0.20366900  1
  Cl  Cl25  1  0.10776600  0.00238700  0.29633100  1
  Cl  Cl26  1  0.39223400  0.00238700  0.79633100  1
  Cl  Cl27  1  0.89223400  0.99761300  0.70366900  1
  Cl  Cl28  1  0.52514200  0.59775200  0.13490200  1
  Cl  Cl29  1  0.02514200  0.40224800  0.36509800  1
  Cl  Cl30  1  0.47485800  0.40224800  0.86509800  1
  Cl  Cl31  1  0.97485800  0.59775200  0.63490200  1
