# generated using pymatgen
data_Tl2SnTe3
_symmetry_space_group_name_H-M   'P 1'
_cell_length_a   8.63882800
_cell_length_b   8.79686100
_cell_length_c   22.64673000
_cell_angle_alpha   90.00000000
_cell_angle_beta   90.00000000
_cell_angle_gamma   90.00000000
_symmetry_Int_Tables_number   1
_chemical_formula_structural   Tl2SnTe3
_chemical_formula_sum   'Tl16 Sn8 Te24'
_cell_volume   1721.02848830
_cell_formula_units_Z   8
loop_
 _symmetry_equiv_pos_site_id
 _symmetry_equiv_pos_as_xyz
  1  'x, y, z'
loop_
 _atom_site_type_symbol
 _atom_site_label
 _atom_site_symmetry_multiplicity
 _atom_site_fract_x
 _atom_site_fract_y
 _atom_site_fract_z
 _atom_site_occupancy
  Tl  Tl0  1  0.70062700  0.98843000  0.33167400  1
  Tl  Tl1  1  0.20062700  0.51157000  0.16832600  1
  Tl  Tl2  1  0.79937300  0.48843000  0.66832600  1
  Tl  Tl3  1  0.29937300  0.01157000  0.83167400  1
  Tl  Tl4  1  0.29937300  0.01157000  0.66832600  1
  Tl  Tl5  1  0.79937300  0.48843000  0.83167400  1
  Tl  Tl6  1  0.20062700  0.51157000  0.33167400  1
  Tl  Tl7  1  0.70062700  0.98843000  0.16832600  1
  Tl  Tl8  1  0.73647400  0.03377000  0.48985800  1
  Tl  Tl9  1  0.23647400  0.46623000  0.01014200  1
  Tl  Tl10  1  0.76352600  0.53377000  0.51014200  1
  Tl  Tl11  1  0.26352600  0.96623000  0.98985800  1
  Tl  Tl12  1  0.26352600  0.96623000  0.51014200  1
  Tl  Tl13  1  0.76352600  0.53377000  0.98985800  1
  Tl  Tl14  1  0.23647400  0.46623000  0.48985800  1
  Tl  Tl15  1  0.73647400  0.03377000  0.01014200  1
  Sn  Sn16  1  0.80319300  0.99453700  0.66517100  1
  Sn  Sn17  1  0.80319300  0.99453700  0.83482900  1
  Sn  Sn18  1  0.30319300  0.50546300  0.66517100  1
  Sn  Sn19  1  0.69680700  0.49453700  0.16517100  1
  Sn  Sn20  1  0.19680700  0.00546300  0.33482900  1
  Sn  Sn21  1  0.19680700  0.00546300  0.16517100  1
  Sn  Sn22  1  0.69680700  0.49453700  0.33482900  1
  Sn  Sn23  1  0.30319300  0.50546300  0.83482900  1
  Te  Te24  1  0.90233500  0.30977300  0.39698000  1
  Te  Te25  1  0.40233500  0.19022700  0.10302000  1
  Te  Te26  1  0.59766500  0.80977300  0.60302000  1
  Te  Te27  1  0.09766500  0.69022700  0.89698000  1
  Te  Te28  1  0.09766500  0.69022700  0.60302000  1
  Te  Te29  1  0.59766500  0.80977300  0.89698000  1
  Te  Te30  1  0.40233500  0.19022700  0.39698000  1
  Te  Te31  1  0.90233500  0.30977300  0.10302000  1
  Te  Te32  1  0.97976700  0.17932600  0.90967600  1
  Te  Te33  1  0.97976700  0.17932600  0.59032400  1
  Te  Te34  1  0.47976700  0.32067400  0.90967600  1
  Te  Te35  1  0.52023300  0.67932600  0.40967600  1
  Te  Te36  1  0.02023300  0.82067400  0.09032400  1
  Te  Te37  1  0.02023300  0.82067400  0.40967600  1
  Te  Te38  1  0.52023300  0.67932600  0.09032400  1
  Te  Te39  1  0.47976700  0.32067400  0.59032400  1
  Te  Te40  1  0.63279400  0.17046500  0.75000000  1
  Te  Te41  1  0.13279400  0.32953500  0.75000000  1
  Te  Te42  1  0.86720600  0.67046500  0.25000000  1
  Te  Te43  1  0.36720600  0.82953500  0.25000000  1
  Te  Te44  1  0.02216100  0.17453600  0.25000000  1
  Te  Te45  1  0.52216100  0.32546400  0.25000000  1
  Te  Te46  1  0.47783900  0.67453600  0.75000000  1
  Te  Te47  1  0.97783900  0.82546400  0.75000000  1
