# generated using pymatgen
data_Sr4Zn3F14
_symmetry_space_group_name_H-M   'P 1'
_cell_length_a   6.90409418
_cell_length_b   6.90409418
_cell_length_c   7.22080000
_cell_angle_alpha   90.00000000
_cell_angle_beta   90.00000000
_cell_angle_gamma   120.00000171
_symmetry_Int_Tables_number   1
_chemical_formula_structural   Sr4Zn3F14
_chemical_formula_sum   'Sr4 Zn3 F14'
_cell_volume   298.07760923
_cell_formula_units_Z   1
loop_
 _symmetry_equiv_pos_site_id
 _symmetry_equiv_pos_as_xyz
  1  'x, y, z'
loop_
 _atom_site_type_symbol
 _atom_site_label
 _atom_site_symmetry_multiplicity
 _atom_site_fract_x
 _atom_site_fract_y
 _atom_site_fract_z
 _atom_site_occupancy
  Sr  Sr0  1  0.33333300  0.66666700  0.00000000  1
  Sr  Sr1  1  0.66666700  0.33333300  0.00000000  1
  Sr  Sr2  1  0.00000000  0.00000000  0.75967200  1
  Sr  Sr3  1  0.00000000  0.00000000  0.24032800  1
  Zn  Zn4  1  0.53503100  0.00000000  0.50000000  1
  Zn  Zn5  1  0.46496900  0.46496900  0.50000000  1
  Zn  Zn6  1  0.00000000  0.53503100  0.50000000  1
  F  F7  1  0.23876900  0.00000000  0.50000000  1
  F  F8  1  0.00000000  0.60745000  0.23259100  1
  F  F9  1  0.39255000  0.39255000  0.23259100  1
  F  F10  1  0.66666700  0.33333300  0.50000000  1
  F  F11  1  0.33333300  0.66666700  0.50000000  1
  F  F12  1  0.60745000  0.00000000  0.23259100  1
  F  F13  1  0.76123100  0.76123100  0.50000000  1
  F  F14  1  0.73452000  0.73452000  0.00000000  1
  F  F15  1  0.00000000  0.26548000  0.00000000  1
  F  F16  1  0.26548000  0.00000000  0.00000000  1
  F  F17  1  0.60745000  0.00000000  0.76740900  1
  F  F18  1  0.00000000  0.60745000  0.76740900  1
  F  F19  1  0.39255000  0.39255000  0.76740900  1
  F  F20  1  0.00000000  0.23876900  0.50000000  1
