# generated using pymatgen
data_Ag4Bi2O5
_symmetry_space_group_name_H-M   'P 1'
_cell_length_a   5.98093700
_cell_length_b   8.77016000
_cell_length_c   14.60488900
_cell_angle_alpha   90.00000000
_cell_angle_beta   90.00000000
_cell_angle_gamma   90.00000000
_symmetry_Int_Tables_number   1
_chemical_formula_structural   Ag4Bi2O5
_chemical_formula_sum   'Ag16 Bi8 O20'
_cell_volume   766.08155333
_cell_formula_units_Z   4
loop_
 _symmetry_equiv_pos_site_id
 _symmetry_equiv_pos_as_xyz
  1  'x, y, z'
loop_
 _atom_site_type_symbol
 _atom_site_label
 _atom_site_symmetry_multiplicity
 _atom_site_fract_x
 _atom_site_fract_y
 _atom_site_fract_z
 _atom_site_occupancy
  Ag  Ag0  1  0.99062800  0.63957700  0.08154800  1
  Ag  Ag1  1  0.49062800  0.86042300  0.41845200  1
  Ag  Ag2  1  0.00937200  0.63957700  0.41845200  1
  Ag  Ag3  1  0.50937200  0.86042300  0.08154800  1
  Ag  Ag4  1  0.99062800  0.36042300  0.58154800  1
  Ag  Ag5  1  0.00937200  0.36042300  0.91845200  1
  Ag  Ag6  1  0.50000000  0.93284200  0.75000000  1
  Ag  Ag7  1  0.00000000  0.56715800  0.75000000  1
  Ag  Ag8  1  0.50000000  0.06715800  0.25000000  1
  Ag  Ag9  1  0.00000000  0.43284200  0.25000000  1
  Ag  Ag10  1  0.25000000  0.75000000  0.24772800  1
  Ag  Ag11  1  0.75000000  0.75000000  0.25227200  1
  Ag  Ag12  1  0.75000000  0.25000000  0.75227200  1
  Ag  Ag13  1  0.25000000  0.25000000  0.74772800  1
  Ag  Ag14  1  0.50937200  0.13957700  0.58154800  1
  Ag  Ag15  1  0.49062800  0.13957700  0.91845200  1
  Bi  Bi16  1  0.50992800  0.58378100  0.61122800  1
  Bi  Bi17  1  0.00992800  0.91621900  0.88877200  1
  Bi  Bi18  1  0.49007200  0.58378100  0.88877200  1
  Bi  Bi19  1  0.99007200  0.91621900  0.61122800  1
  Bi  Bi20  1  0.49007200  0.41621900  0.38877200  1
  Bi  Bi21  1  0.99007200  0.08378100  0.11122800  1
  Bi  Bi22  1  0.50992800  0.41621900  0.11122800  1
  Bi  Bi23  1  0.00992800  0.08378100  0.38877200  1
  O  O24  1  0.63046100  0.91296600  0.61570100  1
  O  O25  1  0.13046100  0.58703400  0.88429900  1
  O  O26  1  0.36953900  0.91296600  0.88429900  1
  O  O27  1  0.86953900  0.58703400  0.61570100  1
  O  O28  1  0.36953900  0.08703400  0.38429900  1
  O  O29  1  0.86953900  0.41296600  0.11570100  1
  O  O30  1  0.63046100  0.08703400  0.11570100  1
  O  O31  1  0.13046100  0.41296600  0.38429900  1
  O  O32  1  0.45631400  0.63013000  0.04273900  1
  O  O33  1  0.95631400  0.86987000  0.45726100  1
  O  O34  1  0.45631400  0.36987000  0.54273900  1
  O  O35  1  0.95631400  0.13013000  0.95726100  1
  O  O36  1  0.54368600  0.36987000  0.95726100  1
  O  O37  1  0.04368600  0.13013000  0.54273900  1
  O  O38  1  0.50000000  0.56342000  0.25000000  1
  O  O39  1  0.00000000  0.93658000  0.25000000  1
  O  O40  1  0.50000000  0.43658000  0.75000000  1
  O  O41  1  0.04368600  0.86987000  0.04273900  1
  O  O42  1  0.00000000  0.06342000  0.75000000  1
  O  O43  1  0.54368600  0.63013000  0.45726100  1
