# generated using pymatgen
data_P2SO3
_symmetry_space_group_name_H-M   'P 1'
_cell_length_a   6.75977300
_cell_length_b   11.72622300
_cell_length_c   12.15412761
_cell_angle_alpha   89.68165044
_cell_angle_beta   90.00000000
_cell_angle_gamma   90.00000000
_symmetry_Int_Tables_number   1
_chemical_formula_structural   P2SO3
_chemical_formula_sum   'P16 S8 O24'
_cell_volume   963.40156880
_cell_formula_units_Z   8
loop_
 _symmetry_equiv_pos_site_id
 _symmetry_equiv_pos_as_xyz
  1  'x, y, z'
loop_
 _atom_site_type_symbol
 _atom_site_label
 _atom_site_symmetry_multiplicity
 _atom_site_fract_x
 _atom_site_fract_y
 _atom_site_fract_z
 _atom_site_occupancy
  P  P0  1  0.01427400  0.82181200  0.09604700  1
  P  P1  1  0.85960100  0.84884600  0.47730100  1
  P  P2  1  0.35960100  0.15115400  0.02269900  1
  P  P3  1  0.46887300  0.28818100  0.61852600  1
  P  P4  1  0.14039900  0.15115400  0.52269900  1
  P  P5  1  0.53112700  0.71181900  0.38147400  1
  P  P6  1  0.03112700  0.28818100  0.11852600  1
  P  P7  1  0.24739800  0.37080400  0.92524100  1
  P  P8  1  0.64039900  0.84884600  0.97730100  1
  P  P9  1  0.25260200  0.37080400  0.42524100  1
  P  P10  1  0.48572600  0.82181200  0.59604700  1
  P  P11  1  0.51427400  0.17818800  0.40395300  1
  P  P12  1  0.75260200  0.62919600  0.07475900  1
  P  P13  1  0.96887300  0.71181900  0.88147400  1
  P  P14  1  0.74739800  0.62919600  0.57475900  1
  P  P15  1  0.98572600  0.17818800  0.90395300  1
  S  S16  1  0.30646400  0.89516400  0.69205300  1
  S  S17  1  0.65753200  0.49956800  0.15061800  1
  S  S18  1  0.80646400  0.10483600  0.80794700  1
  S  S19  1  0.84246800  0.49956800  0.65061800  1
  S  S20  1  0.34246800  0.50043200  0.84938200  1
  S  S21  1  0.19353600  0.89516400  0.19205300  1
  S  S22  1  0.69353600  0.10483600  0.30794700  1
  S  S23  1  0.15753200  0.50043200  0.34938200  1
  O  O24  1  0.67792200  0.89579700  0.56120500  1
  O  O25  1  0.39816300  0.77997700  0.47931200  1
  O  O26  1  0.58538000  0.70471700  0.64427300  1
  O  O27  1  0.22356500  0.20028400  0.12522700  1
  O  O28  1  0.91462000  0.70471700  0.14427300  1
  O  O29  1  0.41000200  0.27522000  0.95766700  1
  O  O30  1  0.86832500  0.60828000  0.96035700  1
  O  O31  1  0.13167500  0.39172000  0.03964300  1
  O  O32  1  0.89816300  0.22002300  0.02068800  1
  O  O33  1  0.36832500  0.39172000  0.53964300  1
  O  O34  1  0.60183700  0.22002300  0.52068800  1
  O  O35  1  0.27643500  0.20028400  0.62522700  1
  O  O36  1  0.58999800  0.72478000  0.04233300  1
  O  O37  1  0.32207800  0.10420300  0.43879500  1
  O  O38  1  0.91000200  0.72478000  0.54233300  1
  O  O39  1  0.72356500  0.79971600  0.37477300  1
  O  O40  1  0.41462000  0.29528300  0.35572700  1
  O  O41  1  0.08999800  0.27522000  0.45766700  1
  O  O42  1  0.82207800  0.89579700  0.06120500  1
  O  O43  1  0.77643500  0.79971600  0.87477300  1
  O  O44  1  0.17792200  0.10420300  0.93879500  1
  O  O45  1  0.08538000  0.29528300  0.85572700  1
  O  O46  1  0.63167500  0.60828000  0.46035700  1
  O  O47  1  0.10183700  0.77997700  0.97931200  1
