# generated using pymatgen
data_BaAl4O7
_symmetry_space_group_name_H-M   'P 1'
_cell_length_a   5.63127300
_cell_length_b   9.28150000
_cell_length_c   12.94800600
_cell_angle_alpha   90.00000000
_cell_angle_beta   90.00000000
_cell_angle_gamma   90.00000000
_symmetry_Int_Tables_number   1
_chemical_formula_structural   BaAl4O7
_chemical_formula_sum   'Ba4 Al16 O28'
_cell_volume   676.74903181
_cell_formula_units_Z   4
loop_
 _symmetry_equiv_pos_site_id
 _symmetry_equiv_pos_as_xyz
  1  'x, y, z'
loop_
 _atom_site_type_symbol
 _atom_site_label
 _atom_site_symmetry_multiplicity
 _atom_site_fract_x
 _atom_site_fract_y
 _atom_site_fract_z
 _atom_site_occupancy
  Ba  Ba0  1  0.87446800  0.54907700  0.75000000  1
  Ba  Ba1  1  0.62553200  0.04907700  0.25000000  1
  Ba  Ba2  1  0.37446800  0.95092300  0.75000000  1
  Ba  Ba3  1  0.12553200  0.45092300  0.25000000  1
  Al  Al4  1  0.32152600  0.66386700  0.57437500  1
  Al  Al5  1  0.32152600  0.66386700  0.92562500  1
  Al  Al6  1  0.17847400  0.16386700  0.42562500  1
  Al  Al7  1  0.17847400  0.16386700  0.07437500  1
  Al  Al8  1  0.82152600  0.83613300  0.57437500  1
  Al  Al9  1  0.82152600  0.83613300  0.92562500  1
  Al  Al10  1  0.67847400  0.33613300  0.42562500  1
  Al  Al11  1  0.67847400  0.33613300  0.07437500  1
  Al  Al12  1  0.12935900  0.81603000  0.37304500  1
  Al  Al13  1  0.12935900  0.81603000  0.12695500  1
  Al  Al14  1  0.37064100  0.31603000  0.62695500  1
  Al  Al15  1  0.37064100  0.31603000  0.87304500  1
  Al  Al16  1  0.62935900  0.68397000  0.37304500  1
  Al  Al17  1  0.62935900  0.68397000  0.12695500  1
  Al  Al18  1  0.87064100  0.18397000  0.62695500  1
  Al  Al19  1  0.87064100  0.18397000  0.87304500  1
  O  O20  1  0.83702600  0.80869700  0.43570400  1
  O  O21  1  0.83702600  0.80869700  0.06429600  1
  O  O22  1  0.66297400  0.30869700  0.56429600  1
  O  O23  1  0.66297400  0.30869700  0.93570400  1
  O  O24  1  0.33702600  0.69130300  0.43570400  1
  O  O25  1  0.33702600  0.69130300  0.06429600  1
  O  O26  1  0.16297400  0.19130300  0.56429600  1
  O  O27  1  0.16297400  0.19130300  0.93570400  1
  O  O28  1  0.25901500  0.48930000  0.61558100  1
  O  O29  1  0.25901500  0.48930000  0.88441900  1
  O  O30  1  0.24098500  0.98930000  0.38441900  1
  O  O31  1  0.24098500  0.98930000  0.11558100  1
  O  O32  1  0.09335600  0.77390000  0.62370400  1
  O  O33  1  0.09335600  0.77390000  0.87629600  1
  O  O34  1  0.40664400  0.27390000  0.37629600  1
  O  O35  1  0.40664400  0.27390000  0.12370400  1
  O  O36  1  0.59335600  0.72610000  0.62370400  1
  O  O37  1  0.59335600  0.72610000  0.87629600  1
  O  O38  1  0.90664400  0.22610000  0.37629600  1
  O  O39  1  0.90664400  0.22610000  0.12370400  1
  O  O40  1  0.74098500  0.51070000  0.38441900  1
  O  O41  1  0.74098500  0.51070000  0.11558100  1
  O  O42  1  0.75901500  0.01070000  0.61558100  1
  O  O43  1  0.75901500  0.01070000  0.88441900  1
  O  O44  1  0.56116100  0.75144600  0.25000000  1
  O  O45  1  0.93883900  0.25144600  0.75000000  1
  O  O46  1  0.06116100  0.74855400  0.25000000  1
  O  O47  1  0.43883900  0.24855400  0.75000000  1
