# generated using pymatgen
data_Ba5(SiN3)2
_symmetry_space_group_name_H-M   'P 1'
_cell_length_a   6.22596100
_cell_length_b   10.53724400
_cell_length_c   15.51737600
_cell_angle_alpha   90.00000000
_cell_angle_beta   90.00000000
_cell_angle_gamma   90.00000000
_symmetry_Int_Tables_number   1
_chemical_formula_structural   Ba5(SiN3)2
_chemical_formula_sum   'Ba20 Si8 N24'
_cell_volume   1018.00923124
_cell_formula_units_Z   4
loop_
 _symmetry_equiv_pos_site_id
 _symmetry_equiv_pos_as_xyz
  1  'x, y, z'
loop_
 _atom_site_type_symbol
 _atom_site_label
 _atom_site_symmetry_multiplicity
 _atom_site_fract_x
 _atom_site_fract_y
 _atom_site_fract_z
 _atom_site_occupancy
  Ba  Ba0  1  0.34313700  0.53724100  0.81841900  1
  Ba  Ba1  1  0.84313700  0.96275900  0.18158100  1
  Ba  Ba2  1  0.65686300  0.03724100  0.68158100  1
  Ba  Ba3  1  0.15686300  0.46275900  0.31841900  1
  Ba  Ba4  1  0.40802600  0.86576900  0.00925400  1
  Ba  Ba5  1  0.90802600  0.63423100  0.99074600  1
  Ba  Ba6  1  0.59197400  0.36576900  0.49074600  1
  Ba  Ba7  1  0.09197400  0.13423100  0.50925400  1
  Ba  Ba8  1  0.42603700  0.47389300  0.09956700  1
  Ba  Ba9  1  0.92603700  0.02610700  0.90043300  1
  Ba  Ba10  1  0.57396300  0.97389300  0.40043300  1
  Ba  Ba11  1  0.07396300  0.52610700  0.59956700  1
  Ba  Ba12  1  0.42262900  0.20694800  0.93481200  1
  Ba  Ba13  1  0.92262900  0.29305200  0.06518800  1
  Ba  Ba14  1  0.57737100  0.70694800  0.56518800  1
  Ba  Ba15  1  0.07737100  0.79305200  0.43481200  1
  Ba  Ba16  1  0.66939800  0.25879800  0.26878200  1
  Ba  Ba17  1  0.16939800  0.24120200  0.73121800  1
  Ba  Ba18  1  0.33060200  0.75879800  0.23121800  1
  Ba  Ba19  1  0.83060200  0.74120200  0.76878200  1
  Si  Si20  1  0.19195600  0.13527000  0.30528300  1
  Si  Si21  1  0.69195600  0.36473000  0.69471700  1
  Si  Si22  1  0.80804400  0.63527000  0.19471700  1
  Si  Si23  1  0.30804400  0.86473000  0.80528300  1
  Si  Si24  1  0.30905100  0.12026500  0.14707100  1
  Si  Si25  1  0.80905100  0.37973500  0.85292900  1
  Si  Si26  1  0.69094900  0.62026500  0.35292900  1
  Si  Si27  1  0.19094900  0.87973500  0.64707100  1
  N  N28  1  0.04817400  0.57377300  0.15066900  1
  N  N29  1  0.54817400  0.92622700  0.84933100  1
  N  N30  1  0.95182600  0.07377300  0.34933100  1
  N  N31  1  0.45182600  0.42622700  0.65066900  1
  N  N32  1  0.94593500  0.81931900  0.60716100  1
  N  N33  1  0.44593500  0.68068100  0.39283900  1
  N  N34  1  0.05406500  0.31931900  0.89283900  1
  N  N35  1  0.55406500  0.18068100  0.10716100  1
  N  N36  1  0.14551000  0.97879900  0.74283500  1
  N  N37  1  0.64551000  0.52120100  0.25716500  1
  N  N38  1  0.85449000  0.47879900  0.75716500  1
  N  N39  1  0.35449000  0.02120100  0.24283500  1
  N  N40  1  0.14789800  0.05782300  0.06361900  1
  N  N41  1  0.64789800  0.44217700  0.93638100  1
  N  N42  1  0.85210200  0.55782300  0.43638100  1
  N  N43  1  0.35210200  0.94217700  0.56361900  1
  N  N44  1  0.15638400  0.23516600  0.21224900  1
  N  N45  1  0.65638400  0.26483400  0.78775100  1
  N  N46  1  0.84361600  0.73516600  0.28775100  1
  N  N47  1  0.34361600  0.76483400  0.71224900  1
  N  N48  1  0.14834100  0.79046400  0.88523000  1
  N  N49  1  0.64834100  0.70953600  0.11477000  1
  N  N50  1  0.85165900  0.29046400  0.61477000  1
  N  N51  1  0.35165900  0.20953600  0.38523000  1
