# generated using pymatgen
data_SiCl2
_symmetry_space_group_name_H-M   'P 1'
_cell_length_a   4.02709000
_cell_length_b   7.18939600
_cell_length_c   13.79623200
_cell_angle_alpha   90.00000000
_cell_angle_beta   90.00000000
_cell_angle_gamma   90.00000000
_symmetry_Int_Tables_number   1
_chemical_formula_structural   SiCl2
_chemical_formula_sum   'Si4 Cl8'
_cell_volume   399.43326494
_cell_formula_units_Z   4
loop_
 _symmetry_equiv_pos_site_id
 _symmetry_equiv_pos_as_xyz
  1  'x, y, z'
loop_
 _atom_site_type_symbol
 _atom_site_label
 _atom_site_symmetry_multiplicity
 _atom_site_fract_x
 _atom_site_fract_y
 _atom_site_fract_z
 _atom_site_occupancy
  Si  Si0  1  0.47548800  0.33622800  0.51075400  1
  Si  Si1  1  0.97548800  0.16377200  0.48924600  1
  Si  Si2  1  0.52451200  0.83622800  0.98924600  1
  Si  Si3  1  0.02451200  0.66377200  0.01075400  1
  Cl  Cl4  1  0.47339200  0.55103800  0.41177400  1
  Cl  Cl5  1  0.97339200  0.94896200  0.58822600  1
  Cl  Cl6  1  0.52660800  0.05103800  0.08822600  1
  Cl  Cl7  1  0.02660800  0.44896200  0.91177400  1
  Cl  Cl8  1  0.47370600  0.44241500  0.64967000  1
  Cl  Cl9  1  0.97370600  0.05758500  0.35033000  1
  Cl  Cl10  1  0.52629400  0.94241500  0.85033000  1
  Cl  Cl11  1  0.02629400  0.55758500  0.14967000  1
