# generated using pymatgen
data_Ba4Ga2S7
_symmetry_space_group_name_H-M   'P 1'
_cell_length_a   7.22175200
_cell_length_b   9.14572300
_cell_length_c   11.97079018
_cell_angle_alpha   71.00346277
_cell_angle_beta   90.00000000
_cell_angle_gamma   90.00000000
_symmetry_Int_Tables_number   1
_chemical_formula_structural   Ba4Ga2S7
_chemical_formula_sum   'Ba8 Ga4 S14'
_cell_volume   747.58836706
_cell_formula_units_Z   2
loop_
 _symmetry_equiv_pos_site_id
 _symmetry_equiv_pos_as_xyz
  1  'x, y, z'
loop_
 _atom_site_type_symbol
 _atom_site_label
 _atom_site_symmetry_multiplicity
 _atom_site_fract_x
 _atom_site_fract_y
 _atom_site_fract_z
 _atom_site_occupancy
  Ba  Ba0  1  0.75000000  0.99064700  0.38787300  1
  Ba  Ba1  1  0.25000000  0.00935300  0.61212700  1
  Ba  Ba2  1  0.75000000  0.92398500  0.93270700  1
  Ba  Ba3  1  0.25000000  0.07601500  0.06729300  1
  Ba  Ba4  1  0.75000000  0.46877400  0.18324400  1
  Ba  Ba5  1  0.25000000  0.53122600  0.81675600  1
  Ba  Ba6  1  0.75000000  0.37009000  0.60923300  1
  Ba  Ba7  1  0.25000000  0.62991000  0.39076700  1
  Ga  Ga8  1  0.75000000  0.73154000  0.68812300  1
  Ga  Ga9  1  0.25000000  0.26846000  0.31187700  1
  Ga  Ga10  1  0.75000000  0.31274700  0.92005100  1
  Ga  Ga11  1  0.25000000  0.68725300  0.07994900  1
  S  S12  1  0.75000000  0.98989600  0.65671400  1
  S  S13  1  0.25000000  0.01010400  0.34328600  1
  S  S14  1  0.75000000  0.16381800  0.11337700  1
  S  S15  1  0.25000000  0.83618200  0.88662300  1
  S  S16  1  0.75000000  0.58244400  0.88903000  1
  S  S17  1  0.25000000  0.41755600  0.11097000  1
  S  S18  1  0.49984200  0.31502700  0.41173400  1
  S  S19  1  0.99984200  0.68497300  0.58826600  1
  S  S20  1  0.50015800  0.68497300  0.58826600  1
  S  S21  1  0.00015800  0.31502700  0.41173400  1
  S  S22  1  0.50266700  0.75850600  0.16542000  1
  S  S23  1  0.00266700  0.24149400  0.83458000  1
  S  S24  1  0.99733300  0.75850600  0.16542000  1
  S  S25  1  0.49733300  0.24149400  0.83458000  1
