# generated using pymatgen
data_Ca2B2O5
_symmetry_space_group_name_H-M   'P 1'
_cell_length_a   6.40409500
_cell_length_b   3.59287800
_cell_length_c   19.42896998
_cell_angle_alpha   87.50657295
_cell_angle_beta   90.00000000
_cell_angle_gamma   90.00000000
_symmetry_Int_Tables_number   1
_chemical_formula_structural   Ca2B2O5
_chemical_formula_sum   'Ca8 B8 O20'
_cell_volume   446.62048306
_cell_formula_units_Z   4
loop_
 _symmetry_equiv_pos_site_id
 _symmetry_equiv_pos_as_xyz
  1  'x, y, z'
loop_
 _atom_site_type_symbol
 _atom_site_label
 _atom_site_symmetry_multiplicity
 _atom_site_fract_x
 _atom_site_fract_y
 _atom_site_fract_z
 _atom_site_occupancy
  Ca  Ca0  1  0.44979300  0.71242100  0.70990700  1
  Ca  Ca1  1  0.94979300  0.28757900  0.79009300  1
  Ca  Ca2  1  0.55020700  0.28757900  0.29009300  1
  Ca  Ca3  1  0.05020700  0.71242100  0.20990700  1
  Ca  Ca4  1  0.69495200  0.24681200  0.56165200  1
  Ca  Ca5  1  0.19495200  0.75318800  0.93834800  1
  Ca  Ca6  1  0.30504800  0.75318800  0.43834800  1
  Ca  Ca7  1  0.80504800  0.24681200  0.06165200  1
  B  B8  1  0.96705100  0.83660700  0.65686900  1
  B  B9  1  0.46705100  0.16339300  0.84313100  1
  B  B10  1  0.03294900  0.16339300  0.34313100  1
  B  B11  1  0.53294900  0.83660700  0.15686900  1
  B  B12  1  0.75243700  0.82307200  0.91750600  1
  B  B13  1  0.25243700  0.17692800  0.58249400  1
  B  B14  1  0.24756300  0.17692800  0.08249400  1
  B  B15  1  0.74756300  0.82307200  0.41750600  1
  O  O16  1  0.30603900  0.24352500  0.51504200  1
  O  O17  1  0.80603900  0.75647500  0.98495800  1
  O  O18  1  0.69396100  0.75647500  0.48495800  1
  O  O19  1  0.19396100  0.24352500  0.01504200  1
  O  O20  1  0.39249500  0.23240700  0.63430700  1
  O  O21  1  0.89249500  0.76759300  0.86569300  1
  O  O22  1  0.60750500  0.76759300  0.36569300  1
  O  O23  1  0.10750500  0.23240700  0.13430700  1
  O  O24  1  0.76678300  0.71404400  0.64764700  1
  O  O25  1  0.26678300  0.28595600  0.85235300  1
  O  O26  1  0.23321700  0.28595600  0.35235300  1
  O  O27  1  0.73321700  0.71404400  0.14764700  1
  O  O28  1  0.04992400  0.03182000  0.59686300  1
  O  O29  1  0.54992400  0.96818000  0.90313700  1
  O  O30  1  0.95007600  0.96818000  0.40313700  1
  O  O31  1  0.45007600  0.03182000  0.09686300  1
  O  O32  1  0.07558200  0.79567900  0.71735000  1
  O  O33  1  0.57558200  0.20432100  0.78265000  1
  O  O34  1  0.92441800  0.20432100  0.28265000  1
  O  O35  1  0.42441800  0.79567900  0.21735000  1
