# generated using pymatgen
data_Ca2GeO4
_symmetry_space_group_name_H-M   'P 1'
_cell_length_a   5.80323171
_cell_length_b   5.80323171
_cell_length_c   6.86051100
_cell_angle_alpha   90.00000000
_cell_angle_beta   90.00000000
_cell_angle_gamma   119.99999668
_symmetry_Int_Tables_number   1
_chemical_formula_structural   Ca2GeO4
_chemical_formula_sum   'Ca4 Ge2 O8'
_cell_volume   200.09071388
_cell_formula_units_Z   2
loop_
 _symmetry_equiv_pos_site_id
 _symmetry_equiv_pos_as_xyz
  1  'x, y, z'
loop_
 _atom_site_type_symbol
 _atom_site_label
 _atom_site_symmetry_multiplicity
 _atom_site_fract_x
 _atom_site_fract_y
 _atom_site_fract_z
 _atom_site_occupancy
  Ca  Ca0  1  0.66666700  0.33333300  0.36537200  1
  Ca  Ca1  1  0.33333300  0.66666700  0.63462800  1
  Ca  Ca2  1  0.00000000  0.00000000  0.50000000  1
  Ca  Ca3  1  0.00000000  0.00000000  0.00000000  1
  Ge  Ge4  1  0.66666700  0.33333300  0.81229500  1
  Ge  Ge5  1  0.33333300  0.66666700  0.18770500  1
  O  O6  1  0.66666700  0.33333300  0.06200900  1
  O  O7  1  0.33333300  0.66666700  0.93799100  1
  O  O8  1  0.34588600  0.17294300  0.70390500  1
  O  O9  1  0.82705700  0.65411400  0.70390500  1
  O  O10  1  0.82705700  0.17294300  0.70390500  1
  O  O11  1  0.65411400  0.82705700  0.29609500  1
  O  O12  1  0.17294300  0.34588600  0.29609500  1
  O  O13  1  0.17294300  0.82705700  0.29609500  1
