# generated using pymatgen
data_Ca2SiO4
_symmetry_space_group_name_H-M   'P 1'
_cell_length_a   5.62538001
_cell_length_b   5.62538001
_cell_length_c   6.80806400
_cell_angle_alpha   90.00000000
_cell_angle_beta   90.00000000
_cell_angle_gamma   120.00000014
_symmetry_Int_Tables_number   1
_chemical_formula_structural   Ca2SiO4
_chemical_formula_sum   'Ca4 Si2 O8'
_cell_volume   186.57695127
_cell_formula_units_Z   2
loop_
 _symmetry_equiv_pos_site_id
 _symmetry_equiv_pos_as_xyz
  1  'x, y, z'
loop_
 _atom_site_type_symbol
 _atom_site_label
 _atom_site_symmetry_multiplicity
 _atom_site_fract_x
 _atom_site_fract_y
 _atom_site_fract_z
 _atom_site_occupancy
  Ca  Ca0  1  0.66666700  0.33333300  0.34389100  1
  Ca  Ca1  1  0.33333300  0.66666700  0.65610900  1
  Ca  Ca2  1  0.00000000  0.00000000  0.50000000  1
  Ca  Ca3  1  0.00000000  0.00000000  0.00000000  1
  Si  Si4  1  0.66666700  0.33333300  0.80231200  1
  Si  Si5  1  0.33333300  0.66666700  0.19768800  1
  O  O6  1  0.66666700  0.33333300  0.03773100  1
  O  O7  1  0.33333300  0.66666700  0.96226900  1
  O  O8  1  0.35440900  0.17720400  0.70777300  1
  O  O9  1  0.82279600  0.64559100  0.70777300  1
  O  O10  1  0.82279600  0.17720400  0.70777300  1
  O  O11  1  0.64559100  0.82279600  0.29222700  1
  O  O12  1  0.17720400  0.35440900  0.29222700  1
  O  O13  1  0.17720400  0.82279600  0.29222700  1
