# generated using pymatgen
data_Zn(AsO2)2
_symmetry_space_group_name_H-M   'P 1'
_cell_length_a   5.11833500
_cell_length_b   4.65106100
_cell_length_c   18.36893849
_cell_angle_alpha   89.73097089
_cell_angle_beta   90.00000000
_cell_angle_gamma   90.00000000
_symmetry_Int_Tables_number   1
_chemical_formula_structural   Zn(AsO2)2
_chemical_formula_sum   'Zn4 As8 O16'
_cell_volume   437.28040374
_cell_formula_units_Z   4
loop_
 _symmetry_equiv_pos_site_id
 _symmetry_equiv_pos_as_xyz
  1  'x, y, z'
loop_
 _atom_site_type_symbol
 _atom_site_label
 _atom_site_symmetry_multiplicity
 _atom_site_fract_x
 _atom_site_fract_y
 _atom_site_fract_z
 _atom_site_occupancy
  Zn  Zn0  1  0.98950600  0.74660900  0.25214500  1
  Zn  Zn1  1  0.48950600  0.25339100  0.24785500  1
  Zn  Zn2  1  0.01049400  0.25339100  0.74785500  1
  Zn  Zn3  1  0.51049400  0.74660900  0.75214500  1
  As  As4  1  0.27583100  0.51423300  0.40361700  1
  As  As5  1  0.77583100  0.48576700  0.09638300  1
  As  As6  1  0.72416900  0.48576700  0.59638300  1
  As  As7  1  0.22416900  0.51423300  0.90361700  1
  As  As8  1  0.71121400  0.01146300  0.40179100  1
  As  As9  1  0.21121400  0.98853700  0.09820900  1
  As  As10  1  0.28878600  0.98853700  0.59820900  1
  As  As11  1  0.78878600  0.01146300  0.90179100  1
  O  O12  1  0.23954100  0.49457900  0.30625400  1
  O  O13  1  0.73954100  0.50542100  0.19374600  1
  O  O14  1  0.76045900  0.50542100  0.69374600  1
  O  O15  1  0.26045900  0.49457900  0.80625400  1
  O  O16  1  0.73408000  0.99696500  0.30446400  1
  O  O17  1  0.23408000  0.00303500  0.19553600  1
  O  O18  1  0.26592000  0.00303500  0.69553600  1
  O  O19  1  0.76592000  0.99696500  0.80446400  1
  O  O20  1  0.36860600  0.89347400  0.41265400  1
  O  O21  1  0.86860600  0.10652600  0.08734600  1
  O  O22  1  0.63139400  0.10652600  0.58734600  1
  O  O23  1  0.13139400  0.89347400  0.91265400  1
  O  O24  1  0.88168300  0.39164700  0.90804300  1
  O  O25  1  0.38168300  0.60835300  0.59195700  1
  O  O26  1  0.11831700  0.60835300  0.09195700  1
  O  O27  1  0.61831700  0.39164700  0.40804300  1
