# generated using pymatgen
data_K4Bi2O5
_symmetry_space_group_name_H-M   'P 1'
_cell_length_a   5.82440100
_cell_length_b   9.74430358
_cell_length_c   9.95945655
_cell_angle_alpha   106.63048933
_cell_angle_beta   105.14348265
_cell_angle_gamma   106.71550648
_symmetry_Int_Tables_number   1
_chemical_formula_structural   K4Bi2O5
_chemical_formula_sum   'K8 Bi4 O10'
_cell_volume   480.99517562
_cell_formula_units_Z   2
loop_
 _symmetry_equiv_pos_site_id
 _symmetry_equiv_pos_as_xyz
  1  'x, y, z'
loop_
 _atom_site_type_symbol
 _atom_site_label
 _atom_site_symmetry_multiplicity
 _atom_site_fract_x
 _atom_site_fract_y
 _atom_site_fract_z
 _atom_site_occupancy
  K  K0  1  0.39996100  0.99138000  0.31516400  1
  K  K1  1  0.60003900  0.00862000  0.68483600  1
  K  K2  1  0.37211100  0.62184400  0.63365800  1
  K  K3  1  0.62788900  0.37815600  0.36634200  1
  K  K4  1  0.61011300  0.70232100  0.04354100  1
  K  K5  1  0.38988700  0.29767900  0.95645900  1
  K  K6  1  0.87749500  0.78528900  0.45138100  1
  K  K7  1  0.12250500  0.21471100  0.54861900  1
  Bi  Bi8  1  0.86314200  0.45697100  0.77002900  1
  Bi  Bi9  1  0.13685800  0.54302900  0.22997100  1
  Bi  Bi10  1  0.09868500  0.88441800  0.87410300  1
  Bi  Bi11  1  0.90131500  0.11558200  0.12589700  1
  O  O12  1  0.23065400  0.45869300  0.80155000  1
  O  O13  1  0.76934600  0.54130700  0.19845000  1
  O  O14  1  0.64825900  0.24816700  0.57967000  1
  O  O15  1  0.35174100  0.75183300  0.42033000  1
  O  O16  1  0.12901100  0.00611000  0.73478100  1
  O  O17  1  0.87098900  0.99389000  0.26521900  1
  O  O18  1  0.74281800  0.88515000  0.89120300  1
  O  O19  1  0.25718200  0.11485000  0.10879700  1
  O  O20  1  0.11779800  0.37253900  0.33042300  1
  O  O21  1  0.88220200  0.62746100  0.66957700  1
