# generated using pymatgen
data_CaAl2SiO6
_symmetry_space_group_name_H-M   'P 1'
_cell_length_a   5.33814600
_cell_length_b   8.73929410
_cell_length_c   9.69073631
_cell_angle_alpha   89.61032869
_cell_angle_beta   74.49137709
_cell_angle_gamma   89.35771716
_symmetry_Int_Tables_number   1
_chemical_formula_structural   CaAl2SiO6
_chemical_formula_sum   'Ca4 Al8 Si4 O24'
_cell_volume   435.59741260
_cell_formula_units_Z   4
loop_
 _symmetry_equiv_pos_site_id
 _symmetry_equiv_pos_as_xyz
  1  'x, y, z'
loop_
 _atom_site_type_symbol
 _atom_site_label
 _atom_site_symmetry_multiplicity
 _atom_site_fract_x
 _atom_site_fract_y
 _atom_site_fract_z
 _atom_site_occupancy
  Ca  Ca0  1  0.74407300  0.69098000  0.00024200  1
  Ca  Ca1  1  0.24572000  0.18832400  0.50225000  1
  Ca  Ca2  1  0.25308100  0.31229500  0.00017800  1
  Ca  Ca3  1  0.75527700  0.80880800  0.49844400  1
  Al  Al4  1  0.07631000  0.89946900  0.71586600  1
  Al  Al5  1  0.57448100  0.40207700  0.21313200  1
  Al  Al6  1  0.42812200  0.90519200  0.28472500  1
  Al  Al7  1  0.42492500  0.59595300  0.78550000  1
  Al  Al8  1  0.74653900  0.08930000  0.99934900  1
  Al  Al9  1  0.26654500  0.59425300  0.49533500  1
  Al  Al10  1  0.25049500  0.90672400  0.00104600  1
  Al  Al11  1  0.73893600  0.40897100  0.50314700  1
  Si  Si12  1  0.92286300  0.40120100  0.79037300  1
  Si  Si13  1  0.92332200  0.09847900  0.29138300  1
  Si  Si14  1  0.57424800  0.09420500  0.70836600  1
  Si  Si15  1  0.07521000  0.59624100  0.21130500  1
  O  O16  1  0.98121000  0.92271700  0.90534100  1
  O  O17  1  0.06140500  0.72784400  0.62813300  1
  O  O18  1  0.38262600  0.98445500  0.64413400  1
  O  O19  1  0.47304700  0.41416500  0.40208600  1
  O  O20  1  0.55752900  0.23332100  0.12294000  1
  O  O21  1  0.88161400  0.48822500  0.14675900  1
  O  O22  1  0.51647800  0.92235500  0.09667100  1
  O  O23  1  0.45604600  0.73198700  0.36677800  1
  O  O24  1  0.11816300  0.98869700  0.35671400  1
  O  O25  1  0.00321500  0.40988900  0.61178700  1
  O  O26  1  0.94858600  0.23420300  0.86264100  1
  O  O27  1  0.63160500  0.47414800  0.85704400  1
  O  O28  1  0.01663300  0.08668100  0.11319200  1
  O  O29  1  0.93720500  0.26522700  0.36501500  1
  O  O30  1  0.63267400  0.02708700  0.35395900  1
  O  O31  1  0.53043300  0.57807700  0.59830000  1
  O  O32  1  0.43807900  0.76752100  0.87160100  1
  O  O33  1  0.11726900  0.51150000  0.85222100  1
  O  O34  1  0.48393000  0.08695100  0.88578100  1
  O  O35  1  0.55180700  0.26093600  0.63567800  1
  O  O36  1  0.86671800  0.02180200  0.64643200  1
  O  O37  1  0.99269300  0.57835200  0.38914800  1
  O  O38  1  0.05383900  0.76623000  0.14376400  1
  O  O39  1  0.36704800  0.52516000  0.14324100  1
